1JCQ_739
     RDKit          3D

 34 34  0  0  0  0  0  0  0  0999 V2000
   22.1055  132.2013   -4.3744 C   0  0  0  0  0  0  0  0  0  0  0  0
   21.2465  132.7079   -3.2137 C   0  0  0  0  0  0  0  0  0  0  0  0
   20.0323  133.5480   -3.6909 C   0  0  0  0  0  0  0  0  0  0  0  0
   20.4683  134.9309   -4.2116 C   0  0  0  0  0  0  0  0  0  0  0  0
   18.8786  133.6108   -2.6173 C   0  0  0  0  0  0  0  0  0  0  0  0
   17.5031  133.7438   -3.3122 C   0  0  0  0  0  0  0  0  0  0  0  0
   17.2449  132.5891   -4.0873 O   0  0  0  0  0  0  0  0  0  0  0  0
   16.1448  132.8016   -4.9559 C   0  0  0  0  0  0  0  0  0  0  0  0
   15.4090  131.4719   -5.1663 C   0  0  0  0  0  0  0  0  0  0  0  0
   14.8375  130.9638   -3.8679 C   0  0  0  0  0  0  0  0  0  0  0  0
   15.5845  130.0945   -3.0548 C   0  0  0  0  0  0  0  0  0  0  0  0
   15.0697  129.6596   -1.8298 C   0  0  0  0  0  0  0  0  0  0  0  0
   13.8116  130.0947   -1.4045 C   0  0  0  0  0  0  0  0  0  0  0  0
   13.0676  130.9687   -2.2019 C   0  0  0  0  0  0  0  0  0  0  0  0
   13.5791  131.4067   -3.4275 C   0  0  0  0  0  0  0  0  0  0  0  0
   16.6423  133.3141   -6.2816 C   0  0  0  0  0  0  0  0  0  0  0  0
   17.6981  132.8319   -6.7758 O   0  0  0  0  0  0  0  0  0  0  0  0
   15.9010  134.3184   -6.9914 N   0  0  0  0  0  0  0  0  0  0  0  0
   16.3900  134.9476   -8.2229 C   0  0  0  0  0  0  0  0  0  0  0  0
   16.8316  136.3961   -7.9492 C   0  0  0  0  0  0  0  0  0  0  0  0
   18.0115  136.4553   -6.9719 C   0  0  0  0  0  0  0  0  0  0  0  0
   18.5594  138.1361   -6.7151 S   0  0  0  0  0  6  0  0  0  0  0  0
   19.2322  138.8106   -8.2189 C   0  0  0  0  0  0  0  0  0  0  0  0
   17.4052  138.9839   -6.2592 O   0  0  0  0  0  0  0  0  0  0  0  0
   19.6257  138.1462   -5.6565 O   0  0  0  0  0  0  0  0  0  0  0  0
   15.3083  134.9195   -9.2648 C   0  0  0  0  0  0  0  0  0  0  0  0
   14.1875  135.4482   -9.0377 O   0  0  0  0  0  0  0  0  0  0  0  0
   15.5438  134.3156  -10.4937 O   0  0  0  0  0  1  0  0  0  0  0  0
   19.0290  134.6925   -1.6083 N   0  0  0  0  0  4  0  0  0  0  0  0
   20.1834  134.5048   -0.7069 C   0  0  0  0  0  0  0  0  0  0  0  0
   20.0133  135.2727    0.6321 C   0  0  0  0  0  0  0  0  0  0  0  0
   19.9084  136.7200    0.3946 N   0  0  0  0  0  4  0  0  0  0  0  0
   21.1937  134.9836    1.5841 C   0  0  0  0  0  0  0  0  0  0  0  0
   21.1474  133.3100    2.2026 S   0  0  0  0  0  1  0  0  0  0  0  0
  1  2  1  0
  2  3  1  0
  3  4  1  0
  3  5  1  0
  5  6  1  0
  6  7  1  0
  7  8  1  0
  8  9  1  0
  9 10  1  0
 10 11  2  0
 11 12  1  0
 12 13  2  0
 13 14  1  0
 14 15  2  0
  8 16  1  0
 16 17  2  0
 16 18  1  0
 18 19  1  0
 19 20  1  0
 20 21  1  0
 21 22  1  0
 22 23  1  0
 22 24  2  0
 22 25  2  0
 19 26  1  0
 26 27  2  0
 26 28  1  0
  5 29  1  0
 29 30  1  0
 30 31  1  0
 31 32  1  0
 31 33  1  0
 33 34  1  0
 15 10  1  0
M  CHG  4  28  -1  29   1  32   1  34  -1
M  END
$$$$
1SA4_JAN
     RDKit          3D

 34 38  0  0  0  0  0  0  0  0999 V2000
   14.2375  131.7174   -1.3263 C   0  0  0  0  0  0  0  0  0  0  0  0
   14.9217  130.5653   -1.9123 N   0  0  0  0  0  0  0  0  0  0  0  0
   14.7725  129.2946   -1.4877 C   0  0  0  0  0  0  0  0  0  0  0  0
   15.6202  128.4395   -2.0895 N   0  0  0  0  0  0  0  0  0  0  0  0
   16.3231  129.2110   -2.9395 C   0  0  0  0  0  0  0  0  0  0  0  0
   15.8739  130.5226   -2.8784 C   0  0  0  0  0  0  0  0  0  0  0  0
   16.5844  131.7223   -3.5365 C   0  0  0  0  0  0  0  0  0  0  0  0
   17.7029  132.0702   -2.6274 N   0  0  0  0  0  4  0  0  0  0  0  0
   15.6062  132.8971   -3.7362 C   0  0  0  0  0  0  0  0  0  0  0  0
   14.4600  132.7135   -4.5430 C   0  0  0  0  0  0  0  0  0  0  0  0
   13.5608  133.7584   -4.7672 C   0  0  0  0  0  0  0  0  0  0  0  0
   13.7824  135.0093   -4.1918 C   0  0  0  0  0  0  0  0  0  0  0  0
   12.6498  136.3190   -4.4719 Cl  0  0  0  0  0  0  0  0  0  0  0  0
   14.9033  135.2142   -3.3867 C   0  0  0  0  0  0  0  0  0  0  0  0
   15.8084  134.1736   -3.1583 C   0  0  0  0  0  0  0  0  0  0  0  0
   17.1352  131.3690   -4.9454 C   0  0  0  0  0  0  0  0  0  0  0  0
   16.5087  130.4061   -5.7609 C   0  0  0  0  0  0  0  0  0  0  0  0
   16.9662  130.1327   -7.0475 C   0  0  0  0  0  0  0  0  0  0  0  0
   18.0620  130.8308   -7.5996 C   0  0  0  0  0  0  0  0  0  0  0  0
   18.6767  131.8417   -6.8129 C   0  0  0  0  0  0  0  0  0  0  0  0
   18.1764  132.1235   -5.5230 C   0  0  0  0  0  0  0  0  0  0  0  0
   19.7577  132.5722   -7.3566 C   0  0  0  0  0  0  0  0  0  0  0  0
   20.4999  133.5997   -6.5880 C   0  0  0  0  0  0  0  0  0  0  0  0
   20.5341  134.9299   -7.0363 C   0  0  0  0  0  0  0  0  0  0  0  0
   21.2400  135.8974   -6.3150 C   0  0  0  0  0  0  0  0  0  0  0  0
   21.9210  135.5431   -5.1470 C   0  0  0  0  0  0  0  0  0  0  0  0
   21.9021  134.2178   -4.7000 C   0  0  0  0  0  0  0  0  0  0  0  0
   22.7584  133.7729   -3.2353 Cl  0  0  0  0  0  0  0  0  0  0  0  0
   21.1996  133.2465   -5.4215 C   0  0  0  0  0  0  0  0  0  0  0  0
   20.1686  132.3067   -8.6610 C   0  0  0  0  0  0  0  0  0  0  0  0
   19.5481  131.3108   -9.4091 C   0  0  0  0  0  0  0  0  0  0  0  0
   19.9600  131.1050  -10.5840 O   0  0  0  0  0  0  0  0  0  0  0  0
   18.5177  130.5700   -8.8801 N   0  0  0  0  0  0  0  0  0  0  0  0
   17.8948  129.5075   -9.6968 C   0  0  0  0  0  0  0  0  0  0  0  0
  1  2  1  0
  2  3  1  0
  3  4  2  0
  4  5  1  0
  5  6  2  0
  6  7  1  0
  7  8  1  0
  7  9  1  0
  9 10  2  0
 10 11  1  0
 11 12  2  0
 12 13  1  0
 12 14  1  0
 14 15  2  0
  7 16  1  0
 16 17  2  0
 17 18  1  0
 18 19  2  0
 19 20  1  0
 20 21  2  0
 20 22  1  0
 22 23  1  0
 23 24  2  0
 24 25  1  0
 25 26  2  0
 26 27  1  0
 27 28  1  0
 27 29  2  0
 22 30  2  0
 30 31  1  0
 31 32  2  0
 31 33  1  0
 33 34  1  0
  6  2  1  0
 15  9  1  0
 21 16  1  0
 29 23  1  0
 33 19  1  0
M  CHG  1   8   1
M  END
$$$$
1MZC_BNE
     RDKit          3D

 35 38  0  0  0  0  0  0  0  0999 V2000
    8.2662  136.6086   -9.2558 C   0  0  0  0  0  0  0  0  0  0  0  0
    8.6421  135.3774  -10.0937 C   0  0  0  0  0  0  0  0  0  0  0  0
    9.2918  134.2059   -9.2829 C   0  0  0  0  0  0  0  0  0  0  0  0
   10.6077  134.6255   -8.5736 C   0  0  0  0  0  0  0  0  0  0  0  0
   11.4235  135.6784   -9.0512 C   0  0  0  0  0  0  0  0  0  0  0  0
   12.6417  135.9784   -8.4384 C   0  0  0  0  0  0  0  0  0  0  0  0
   13.0961  135.2168   -7.3641 C   0  0  0  0  0  0  0  0  0  0  0  0
   12.3375  134.1312   -6.9016 C   0  0  0  0  0  0  0  0  0  0  0  0
   12.7756  133.3142   -5.8483 O   0  0  0  0  0  0  0  0  0  0  0  0
   13.7346  133.6873   -4.8964 C   0  0  0  0  0  0  0  0  0  0  0  0
   14.8447  132.8557   -4.7072 C   0  0  0  0  0  0  0  0  0  0  0  0
   15.8534  133.1839   -3.7722 C   0  0  0  0  0  0  0  0  0  0  0  0
   17.1059  132.3101   -3.5325 C   0  0  0  0  0  0  0  0  0  0  0  0
   17.1586  131.0782   -4.4668 C   0  0  0  0  0  0  0  0  0  0  0  0
   17.0697  131.8440   -2.1299 N   0  0  0  0  0  4  0  0  0  0  0  0
   18.3630  133.1468   -3.8211 C   0  0  0  0  0  0  0  0  0  0  0  0
   18.4368  134.1603   -4.7657 C   0  0  0  0  0  0  0  0  0  0  0  0
   19.7025  134.6076   -4.8645 N   0  0  0  0  0  0  0  0  0  0  0  0
   20.3937  133.8477   -3.9938 C   0  0  0  0  0  0  0  0  0  0  0  0
   19.6219  132.9414   -3.3603 N   0  0  0  0  0  0  0  0  0  0  0  0
   20.1229  131.9479   -2.4128 C   0  0  0  0  0  0  0  0  0  0  0  0
   15.6933  134.3619   -3.0134 C   0  0  0  0  0  0  0  0  0  0  0  0
   14.5749  135.1797   -3.1792 C   0  0  0  0  0  0  0  0  0  0  0  0
   13.5895  134.8484   -4.1123 C   0  0  0  0  0  0  0  0  0  0  0  0
   12.4152  135.6789   -4.2157 C   0  0  0  0  0  0  0  0  0  0  0  0
   11.4727  136.3452   -4.2996 N   0  0  0  0  0  0  0  0  0  0  0  0
   11.1240  133.8256   -7.5260 C   0  0  0  0  0  0  0  0  0  0  0  0
    9.7181  133.0516  -10.2438 C   0  0  0  0  0  0  0  0  0  0  0  0
    8.7313  132.6186  -11.3478 C   0  0  0  0  0  0  0  0  0  0  0  0
    7.3223  132.2056  -10.8931 C   0  0  0  0  0  0  0  0  0  0  0  0
    7.2411  131.7487   -9.4396 C   0  0  0  0  0  0  0  0  0  0  0  0
    7.1307  132.9081   -8.5485 N   0  0  0  0  0  0  0  0  0  0  0  0
    5.8606  133.1734   -7.8634 C   0  0  0  0  0  0  0  0  0  0  0  0
    8.2591  133.7520   -8.2356 C   0  0  0  0  0  0  0  0  0  0  0  0
    8.3044  134.2748   -7.0857 O   0  0  0  0  0  0  0  0  0  0  0  0
  1  2  1  0
  2  3  1  0
  3  4  1  0
  4  5  2  0
  5  6  1  0
  6  7  2  0
  7  8  1  0
  8  9  1  0
  9 10  1  0
 10 11  2  0
 11 12  1  0
 12 13  1  0
 13 14  1  0
 13 15  1  0
 13 16  1  0
 16 17  2  0
 17 18  1  0
 18 19  2  0
 19 20  1  0
 20 21  1  0
 12 22  2  0
 22 23  1  0
 23 24  2  0
 24 25  1  0
 25 26  3  0
  8 27  2  0
  3 28  1  0
 28 29  1  0
 29 30  1  0
 30 31  1  0
 31 32  1  0
 32 33  1  0
 32 34  1  0
 34 35  2  0
 34  3  1  0
 27  4  1  0
 24 10  1  0
 20 16  1  0
M  CHG  1  15   1
M  END
$$$$
1LD7_U66
     RDKit          3D

 34 39  0  0  0  0  0  0  0  0999 V2000
   -2.0297    1.5354   -1.4754 N   0  0  0  0  0  0  0  0  0  0  0  0
   -1.5868    0.5868   -0.9815 C   0  0  0  0  0  0  0  0  0  0  0  0
   -1.0163   -0.6225   -0.3539 C   0  0  0  0  0  0  0  0  0  0  0  0
    0.3207   -0.9712   -1.0287 C   0  0  0  0  0  0  0  0  0  0  0  0
    1.3993    0.0322   -0.6932 C   0  0  0  0  0  0  0  0  0  0  0  0
    1.3936    0.7550    0.4497 C   0  0  0  0  0  0  0  0  0  0  0  0
    0.2546    0.6685    1.4463 C   0  0  0  0  0  0  0  0  0  0  0  0
   -0.7650   -0.4489    1.1614 C   0  0  0  0  0  0  0  0  0  0  0  0
   -1.9717   -0.2904    1.9294 O   0  0  0  0  0  0  0  0  0  0  0  0
   -2.8907    0.7563    1.7753 C   0  0  0  0  0  0  0  0  0  0  0  0
   -4.0341    0.5502    1.0007 C   0  0  0  0  0  0  0  0  0  0  0  0
   -4.9353    1.5904    0.7842 C   0  0  0  0  0  0  0  0  0  0  0  0
   -4.7034    2.8559    1.3423 C   0  0  0  0  0  0  0  0  0  0  0  0
   -5.6023    3.9004    1.0915 C   0  0  0  0  0  0  0  0  0  0  0  0
   -5.3793    5.1628    1.6327 C   0  0  0  0  0  0  0  0  0  0  0  0
   -4.2611    5.3985    2.4298 C   0  0  0  0  0  0  0  0  0  0  0  0
   -3.3420    4.3721    2.7105 C   0  0  0  0  0  0  0  0  0  0  0  0
   -3.5625    3.0771    2.1624 C   0  0  0  0  0  0  0  0  0  0  0  0
   -2.6908    1.9941    2.4085 C   0  0  0  0  0  0  0  0  0  0  0  0
   -2.1918    4.6739    3.5273 N   0  0  0  0  0  0  0  0  0  0  0  0
   -2.2315    5.4096    4.7851 C   0  0  0  0  0  0  0  0  0  0  0  0
   -0.8004    5.9354    5.0054 C   0  0  0  0  0  0  0  0  0  0  0  0
    0.1211    5.0458    4.1470 C   0  0  0  0  0  0  0  0  0  0  0  0
    0.6839    3.9566    4.9790 N   0  0  0  0  0  4  0  0  0  0  0  0
    1.3510    2.8791    4.2289 C   0  0  0  0  0  0  0  0  0  0  0  0
    2.6158    3.3417    3.4900 C   0  0  0  0  0  0  0  0  0  0  0  0
    3.4077    2.1478    3.0181 C   0  0  0  0  0  0  0  0  0  0  0  0
    4.3261    1.4636    3.7860 C   0  0  0  0  0  0  0  0  0  0  0  0
    4.7840    0.3985    3.0987 N   0  0  0  0  0  0  0  0  0  0  0  0
    4.1255    0.4488    1.9222 C   0  0  0  0  0  0  0  0  0  0  0  0
    3.2724    1.4906    1.8444 N   0  0  0  0  0  0  0  0  0  0  0  0
    2.4456    1.8185    0.6807 C   0  0  0  0  0  0  0  0  0  0  0  0
   -0.8393    4.5531    3.1199 C   0  0  0  0  0  0  0  0  0  0  0  0
   -0.5004    4.1823    1.9643 O   0  0  0  0  0  0  0  0  0  0  0  0
  1  2  3  0
  2  3  1  0
  3  4  1  0
  4  5  1  0
  5  6  2  0
  6  7  1  0
  7  8  1  0
  8  9  1  0
  9 10  1  0
 10 11  2  0
 11 12  1  0
 12 13  2  0
 13 14  1  0
 14 15  2  0
 15 16  1  0
 16 17  2  0
 17 18  1  0
 18 19  2  0
 17 20  1  0
 20 21  1  0
 21 22  1  0
 22 23  1  0
 23 24  1  0
 24 25  1  0
 25 26  1  0
 26 27  1  0
 27 28  2  0
 28 29  1  0
 29 30  2  0
 30 31  1  0
 31 32  1  0
 23 33  1  0
 33 34  2  0
  8  3  1  0
 19 10  1  0
 33 20  1  0
 32  6  1  0
 18 13  1  0
 31 27  1  0
M  CHG  1  24   1
M  END
$$$$
1S63_778
     RDKit          3D

 29 32  0  0  0  0  0  0  0  0999 V2000
   17.2864  130.9544   -3.3852 N   0  0  0  0  0  0  0  0  0  0  0  0
   16.5326  131.8182   -3.5431 C   0  0  0  0  0  0  0  0  0  0  0  0
   15.5955  132.8921   -3.7431 C   0  0  0  0  0  0  0  0  0  0  0  0
   14.4639  132.6923   -4.5413 C   0  0  0  0  0  0  0  0  0  0  0  0
   13.5693  133.7423   -4.7658 C   0  0  0  0  0  0  0  0  0  0  0  0
   13.7979  135.0054   -4.1936 C   0  0  0  0  0  0  0  0  0  0  0  0
   12.8109  136.1253   -4.4035 C   0  0  0  0  0  0  0  0  0  0  0  0
   13.4733  137.3303   -4.9109 N   0  0  0  0  0  0  0  0  0  0  0  0
   13.6536  138.4800   -4.2307 C   0  0  0  0  0  0  0  0  0  0  0  0
   14.2164  139.4475   -4.9842 N   0  0  0  0  0  0  0  0  0  0  0  0
   14.3980  138.8736   -6.1905 C   0  0  0  0  0  0  0  0  0  0  0  0
   13.9585  137.5652   -6.1477 C   0  0  0  0  0  0  0  0  0  0  0  0
   13.9220  136.5901   -7.3030 C   0  0  0  0  0  0  0  0  0  0  0  0
   15.1588  136.6154   -8.1273 N   0  0  0  0  0  4  0  0  0  0  0  0
   15.0326  135.7619   -9.3303 C   0  0  0  0  0  0  0  0  0  0  0  0
   14.8788  134.2682   -8.9882 C   0  0  0  0  0  0  0  0  0  0  0  0
   15.8448  133.8241   -7.9718 N   0  0  0  0  0  0  0  0  0  0  0  0
   16.0768  132.4111   -7.7870 C   0  0  0  0  0  0  0  0  0  0  0  0
   15.0044  131.4999   -7.7957 C   0  0  0  0  0  0  0  0  0  0  0  0
   15.2330  130.1365   -7.5894 C   0  0  0  0  0  0  0  0  0  0  0  0
   16.5313  129.6666   -7.3799 C   0  0  0  0  0  0  0  0  0  0  0  0
   17.6067  130.5594   -7.3830 C   0  0  0  0  0  0  0  0  0  0  0  0
   19.2376  129.9684   -7.1237 Cl  0  0  0  0  0  0  0  0  0  0  0  0
   17.3821  131.9244   -7.5917 C   0  0  0  0  0  0  0  0  0  0  0  0
   16.4362  134.7806   -7.0693 C   0  0  0  0  0  0  0  0  0  0  0  0
   17.0680  134.3952   -6.0491 O   0  0  0  0  0  0  0  0  0  0  0  0
   16.3743  136.2486   -7.3680 C   0  0  0  0  0  0  0  0  0  0  0  0
   14.9246  135.1944   -3.3766 C   0  0  0  0  0  0  0  0  0  0  0  0
   15.8216  134.1437   -3.1562 C   0  0  0  0  0  0  0  0  0  0  0  0
  1  2  3  0
  2  3  1  0
  3  4  2  0
  4  5  1  0
  5  6  2  0
  6  7  1  0
  7  8  1  0
  8  9  1  0
  9 10  2  0
 10 11  1  0
 11 12  2  0
 12 13  1  0
 13 14  1  0
 14 15  1  0
 15 16  1  0
 16 17  1  0
 17 18  1  0
 18 19  2  0
 19 20  1  0
 20 21  2  0
 21 22  1  0
 22 23  1  0
 22 24  2  0
 17 25  1  0
 25 26  2  0
 25 27  1  0
  6 28  1  0
 28 29  2  0
 29  3  1  0
 12  8  1  0
 27 14  1  0
 24 18  1  0
M  CHG  1  14   1
M  END
$$$$
3E37_ED5
     RDKit          3D

 43 46  0  0  0  0  0  0  0  0999 V2000
   16.5571  131.7532   -3.5393 C   0  0  0  0  0  0  0  0  0  0  0  0
   15.6012  132.9000   -3.7414 C   0  0  0  0  0  0  0  0  0  0  0  0
   14.4642  132.7072   -4.5464 C   0  0  0  0  0  0  0  0  0  0  0  0
   13.5634  133.7505   -4.7660 C   0  0  0  0  0  0  0  0  0  0  0  0
   13.7872  134.9996   -4.1902 C   0  0  0  0  0  0  0  0  0  0  0  0
   14.9083  135.2087   -3.3861 C   0  0  0  0  0  0  0  0  0  0  0  0
   15.8241  134.1692   -3.1503 C   0  0  0  0  0  0  0  0  0  0  0  0
   17.2290  134.4843   -2.1140 S   0  0  0  0  0  6  0  0  0  0  0  0
   18.4759  134.2180   -2.9096 O   0  0  0  0  0  0  0  0  0  0  0  0
   17.2427  135.9312   -1.7015 O   0  0  0  0  0  0  0  0  0  0  0  0
   17.2300  133.4679   -0.6878 N   0  0  0  0  0  0  0  0  0  0  0  0
   15.8771  133.3111   -0.0998 C   0  0  0  0  0  0  0  0  0  0  0  0
   15.2982  134.5903    0.5362 C   0  0  0  0  0  0  0  0  0  0  0  0
   13.9713  134.3416    1.1265 N   0  0  0  0  0  0  0  0  0  0  0  0
   13.8071  133.4473    2.2854 C   0  0  0  0  0  0  0  0  0  0  0  0
   14.7433  133.8150    3.4049 C   0  0  0  0  0  0  0  0  0  0  0  0
   14.8917  135.0704    3.9552 C   0  0  0  0  0  0  0  0  0  0  0  0
   15.7828  135.0128    4.9661 N   0  0  0  0  0  0  0  0  0  0  0  0
   16.1531  133.7154    5.0163 C   0  0  0  0  0  0  0  0  0  0  0  0
   15.5391  132.9645    4.0810 N   0  0  0  0  0  0  0  0  0  0  0  0
   15.6527  131.5179    3.9214 C   0  0  0  0  0  0  0  0  0  0  0  0
   12.8012  134.9022    0.5048 C   0  0  0  0  0  0  0  0  0  0  0  0
   12.5106  134.6326   -0.8417 C   0  0  0  0  0  0  0  0  0  0  0  0
   11.3771  135.1860   -1.4442 C   0  0  0  0  0  0  0  0  0  0  0  0
   10.5229  136.0136   -0.7054 C   0  0  0  0  0  0  0  0  0  0  0  0
    9.3568  136.5847   -1.3267 C   0  0  0  0  0  0  0  0  0  0  0  0
    8.4194  137.0439   -1.8261 N   0  0  0  0  0  0  0  0  0  0  0  0
   10.8048  136.2819    0.6399 C   0  0  0  0  0  0  0  0  0  0  0  0
   11.9380  135.7272    1.2427 C   0  0  0  0  0  0  0  0  0  0  0  0
   18.2822  133.9194    0.2499 C   0  0  0  0  0  0  0  0  0  0  0  0
   18.5072  132.9426    1.4259 C   0  0  0  0  0  0  0  0  0  0  0  0
   18.8763  131.5355    0.9201 C   0  0  0  0  0  0  0  0  0  0  0  0
   19.1255  130.5742    2.0865 C   0  0  0  0  0  0  0  0  0  0  0  0
   20.0836  131.1460    3.0444 N   0  0  0  0  0  0  0  0  0  0  0  0
   20.9789  130.2728    3.7625 C   0  0  0  0  0  0  0  0  0  0  0  0
   21.7200  130.7389    4.6702 O   0  0  0  0  0  0  0  0  0  0  0  0
   21.0204  128.9050    3.4445 O   0  0  0  0  0  0  0  0  0  0  0  0
   21.8460  127.9087    4.0656 C   0  0  0  0  0  0  0  0  0  0  0  0
   21.5158  127.7883    5.5656 C   0  0  0  0  0  0  0  0  0  0  0  0
   23.3378  128.2353    3.8613 C   0  0  0  0  0  0  0  0  0  0  0  0
   21.5331  126.5701    3.3800 C   0  0  0  0  0  0  0  0  0  0  0  0
   19.8499  132.5172    3.5236 C   0  0  0  0  0  0  0  0  0  0  0  0
   19.6205  133.4689    2.3467 C   0  0  0  0  0  0  0  0  0  0  0  0
  1  2  1  0
  2  3  2  0
  3  4  1  0
  4  5  2  0
  5  6  1  0
  6  7  2  0
  7  8  1  0
  8  9  2  0
  8 10  2  0
  8 11  1  0
 11 12  1  0
 12 13  1  0
 13 14  1  0
 14 15  1  0
 15 16  1  0
 16 17  2  0
 17 18  1  0
 18 19  2  0
 19 20  1  0
 20 21  1  0
 14 22  1  0
 22 23  2  0
 23 24  1  0
 24 25  2  0
 25 26  1  0
 26 27  3  0
 25 28  1  0
 28 29  2  0
 11 30  1  0
 30 31  1  0
 31 32  1  0
 32 33  1  0
 33 34  1  0
 34 35  1  0
 35 36  2  0
 35 37  1  0
 37 38  1  0
 38 39  1  0
 38 40  1  0
 38 41  1  0
 34 42  1  0
 42 43  1  0
  7  2  1  0
 20 16  1  0
 29 22  1  0
 43 31  1  0
M  END
$$$$
2IEJ_FII
     RDKit          3D

 24 23  0  0  0  0  0  0  0  0999 V2000
   22.8000  134.6901   -6.0258 C   0  0  0  0  0  0  0  0  0  0  0  0
   21.3076  134.9206   -5.9955 C   0  0  0  0  0  0  0  0  0  0  0  0
   20.4835  134.6132   -7.2191 C   0  0  0  0  0  0  0  0  0  0  0  0
   20.6800  135.4133   -4.9052 C   0  0  0  0  0  0  0  0  0  0  0  0
   21.3589  135.7239   -3.5921 C   0  0  0  0  0  0  0  0  0  0  0  0
   21.4325  134.4878   -2.6842 C   0  0  0  0  0  0  0  0  0  0  0  0
   20.0569  133.9654   -2.3214 C   0  0  0  0  0  0  0  0  0  0  0  0
   19.5612  132.6928   -2.9663 C   0  0  0  0  0  0  0  0  0  0  0  0
   19.3050  134.6592   -1.4380 C   0  0  0  0  0  0  0  0  0  0  0  0
   17.9415  134.2351   -0.9436 C   0  0  0  0  0  0  0  0  0  0  0  0
   18.0284  133.2404    0.2265 C   0  0  0  0  0  0  0  0  0  0  0  0
   18.9233  133.7438    1.3426 C   0  0  0  0  0  0  0  0  0  0  0  0
   20.2343  133.0414    1.6101 C   0  0  0  0  0  0  0  0  0  0  0  0
   18.5357  134.8195    2.0635 C   0  0  0  0  0  0  0  0  0  0  0  0
   19.3714  135.4598    3.1375 C   0  0  0  0  0  0  0  0  0  0  0  0
   20.5650  135.9490    2.5677 O   0  0  0  0  0  0  0  0  0  0  0  0
   20.9386  137.0445    3.2803 N   0  0  0  0  0  0  0  0  0  0  0  0
   20.6615  138.3645    2.7984 C   0  0  0  0  0  0  0  0  0  0  0  0
   21.0751  139.3614    3.4483 O   0  0  0  0  0  0  0  0  0  0  0  0
   19.9252  138.5785    1.5090 C   0  0  0  0  0  0  0  0  0  0  0  0
   21.0759  138.5039    0.1029 P   0  0  0  0  0  5  0  0  0  0  0  0
   22.0995  139.6095    0.2247 O   0  0  0  0  0  0  0  0  0  0  0  0
   21.8659  137.0088    0.0784 O   0  0  0  0  0  1  0  0  0  0  0  0
   20.2086  138.7010   -1.3349 O   0  0  0  0  0  1  0  0  0  0  0  0
  1  2  1  0
  2  3  1  0
  2  4  2  3
  4  5  1  0
  5  6  1  0
  6  7  1  0
  7  8  1  0
  7  9  2  0
  9 10  1  0
 10 11  1  0
 11 12  1  0
 12 13  1  0
 12 14  2  0
 14 15  1  0
 15 16  1  0
 16 17  1  0
 17 18  1  0
 18 19  2  0
 18 20  1  0
 20 21  1  0
 21 22  2  0
 21 23  1  0
 21 24  1  0
M  CHG  2  23  -1  24  -1
M  END
$$$$
2IEJ_S48
     RDKit          3D

 38 42  0  0  0  0  0  0  0  0999 V2000
   20.8706  126.7375   -3.2150 C   0  0  0  0  0  0  0  0  0  0  0  0
   19.8907  127.5914   -2.6376 O   0  0  0  0  0  0  0  0  0  0  0  0
   19.4380  128.7525   -3.2705 C   0  0  0  0  0  0  0  0  0  0  0  0
   19.8649  129.0700   -4.4145 O   0  0  0  0  0  0  0  0  0  0  0  0
   18.4069  129.6056   -2.5975 C   0  0  0  0  0  0  0  0  0  0  0  0
   18.8120  131.0318   -2.6233 N   0  0  0  0  0  0  0  0  0  0  0  0
   17.6636  131.9799   -2.4647 C   0  0  0  0  0  0  0  0  0  0  0  0
   16.5627  131.7498   -3.5466 C   0  0  0  0  0  0  0  0  0  0  0  0
   15.5943  132.8990   -3.7389 C   0  0  0  0  0  0  0  0  0  0  0  0
   14.4638  132.7061   -4.5488 C   0  0  0  0  0  0  0  0  0  0  0  0
   13.5507  133.7502   -4.7742 C   0  0  0  0  0  0  0  0  0  0  0  0
   12.3550  133.5370   -5.6292 C   0  0  0  0  0  0  0  0  0  0  0  0
   12.4482  132.7875   -6.8174 C   0  0  0  0  0  0  0  0  0  0  0  0
   11.3207  132.5891   -7.6200 C   0  0  0  0  0  0  0  0  0  0  0  0
   10.0900  133.1342   -7.2471 C   0  0  0  0  0  0  0  0  0  0  0  0
    9.9845  133.8796   -6.0709 C   0  0  0  0  0  0  0  0  0  0  0  0
   11.1089  134.0820   -5.2648 C   0  0  0  0  0  0  0  0  0  0  0  0
   13.7914  135.0017   -4.1853 C   0  0  0  0  0  0  0  0  0  0  0  0
   14.9181  135.2055   -3.3871 C   0  0  0  0  0  0  0  0  0  0  0  0
   15.8238  134.1566   -3.1509 C   0  0  0  0  0  0  0  0  0  0  0  0
   16.9999  134.3450   -2.3440 N   0  0  0  0  0  0  0  0  0  0  0  0
   17.0501  135.3085   -1.2350 C   0  0  0  0  0  0  0  0  0  0  0  0
   17.9336  136.4748   -1.5811 C   0  0  0  0  0  0  0  0  0  0  0  0
   18.0370  137.0881   -2.8128 C   0  0  0  0  0  0  0  0  0  0  0  0
   18.8901  138.1291   -2.7238 N   0  0  0  0  0  0  0  0  0  0  0  0
   19.2803  138.1366   -1.4314 C   0  0  0  0  0  0  0  0  0  0  0  0
   18.7026  137.1555   -0.7110 N   0  0  0  0  0  0  0  0  0  0  0  0
   18.9313  136.8652    0.7012 C   0  0  0  0  0  0  0  0  0  0  0  0
   18.1347  133.4498   -2.5746 C   0  0  0  0  0  0  0  0  0  0  0  0
   20.0549  131.2891   -1.3936 S   0  0  0  0  0  6  0  0  0  0  0  0
   20.8410  130.0332   -1.1360 O   0  0  0  0  0  0  0  0  0  0  0  0
   21.0161  132.3341   -1.8874 O   0  0  0  0  0  0  0  0  0  0  0  0
   19.3757  131.8193    0.1397 C   0  0  0  0  0  0  0  0  0  0  0  0
   18.5372  131.0842    0.9460 C   0  0  0  0  0  0  0  0  0  0  0  0
   18.2315  131.8489    2.0055 N   0  0  0  0  0  0  0  0  0  0  0  0
   17.4339  131.4608    3.1613 C   0  0  0  0  0  0  0  0  0  0  0  0
   18.9039  133.0045    1.8387 C   0  0  0  0  0  0  0  0  0  0  0  0
   19.6182  133.0250    0.6936 N   0  0  0  0  0  0  0  0  0  0  0  0
  1  2  1  0
  2  3  1  0
  3  4  2  0
  3  5  1  0
  5  6  1  0
  6  7  1  0
  7  8  1  0
  8  9  1  0
  9 10  2  0
 10 11  1  0
 11 12  1  0
 12 13  2  0
 13 14  1  0
 14 15  2  0
 15 16  1  0
 16 17  2  0
 11 18  2  0
 18 19  1  0
 19 20  2  0
 20 21  1  0
 21 22  1  0
 22 23  1  0
 23 24  2  0
 24 25  1  0
 25 26  2  0
 26 27  1  0
 27 28  1  0
 21 29  1  0
  6 30  1  0
 30 31  2  0
 30 32  2  0
 30 33  1  0
 33 34  2  0
 34 35  1  0
 35 36  1  0
 35 37  1  0
 37 38  2  0
 29  7  1  0
 38 33  1  0
 20  9  1  0
 27 23  1  0
 17 12  1  0
M  END
$$$$
1LD8_FPP
     RDKit          3D

 24 23  0  0  0  0  0  0  0  0999 V2000
   19.2484  137.2097   -4.9280 C   0  0  0  0  0  0  0  0  0  0  0  0
   19.8273  135.9533   -5.5343 C   0  0  0  0  0  0  0  0  0  0  0  0
   19.2753  135.4345   -6.8369 C   0  0  0  0  0  0  0  0  0  0  0  0
   20.8442  135.2796   -4.9536 C   0  0  0  0  0  0  0  0  0  0  0  0
   21.4698  135.6445   -3.6277 C   0  0  0  0  0  0  0  0  0  0  0  0
   20.7076  135.0247   -2.4471 C   0  0  0  0  0  0  0  0  0  0  0  0
   20.6780  133.5118   -2.5270 C   0  0  0  0  0  0  0  0  0  0  0  0
   19.3899  132.8226   -2.9137 C   0  0  0  0  0  0  0  0  0  0  0  0
   21.8027  132.8159   -2.2443 C   0  0  0  0  0  0  0  0  0  0  0  0
   21.9268  131.3179   -2.3591 C   0  0  0  0  0  0  0  0  0  0  0  0
   22.3481  130.9191   -3.7779 C   0  0  0  0  0  0  0  0  0  0  0  0
   22.3988  129.4143   -3.9207 C   0  0  0  0  0  0  0  0  0  0  0  0
   21.2728  128.7039   -4.6351 C   0  0  0  0  0  0  0  0  0  0  0  0
   23.4474  128.7373   -3.4007 C   0  0  0  0  0  0  0  0  0  0  0  0
   23.5995  127.2429   -3.4763 C   0  0  0  0  0  0  0  0  0  0  0  0
   23.7911  126.8637   -4.8178 O   0  0  0  0  0  0  0  0  0  0  0  0
   23.8270  125.1594   -4.8990 P   0  0  2  0  0  5  0  0  0  0  0  0
   22.4462  124.6196   -4.6015 O   0  0  0  0  0  0  0  0  0  0  0  0
   24.9143  124.5307   -3.7630 O   0  0  0  0  0  1  0  0  0  0  0  0
   24.2753  124.6473   -6.4581 O   0  0  0  0  0  0  0  0  0  0  0  0
   25.6935  125.4854   -6.8843 P   0  0  0  0  0  5  0  0  0  0  0  0
   26.2474  124.8836   -8.1549 O   0  0  0  0  0  0  0  0  0  0  0  0
   25.3422  127.1165   -7.1652 O   0  0  0  0  0  1  0  0  0  0  0  0
   26.8652  125.3599   -5.6690 O   0  0  0  0  0  1  0  0  0  0  0  0
  1  2  1  0
  2  3  1  0
  2  4  2  3
  4  5  1  0
  5  6  1  0
  6  7  1  0
  7  8  1  0
  7  9  2  0
  9 10  1  0
 10 11  1  0
 11 12  1  0
 12 13  1  0
 12 14  2  0
 14 15  1  0
 15 16  1  0
 16 17  1  0
 17 18  2  0
 17 19  1  1
 17 20  1  0
 20 21  1  0
 21 22  2  0
 21 23  1  0
 21 24  1  0
M  CHG  3  19  -1  23  -1  24  -1
M  END
$$$$
