1JCQ_739
     RDKit          3D

 34 34  0  0  0  0  0  0  0  0999 V2000
   22.9593  130.4984   -4.2406 C   0  0  0  0  0  0  0  0  0  0  0  0
   22.9047  130.0294   -2.7802 C   0  0  0  0  0  0  0  0  0  0  0  0
   22.3310  128.5989   -2.5455 C   0  0  0  0  0  0  0  0  0  0  0  0
   22.6473  127.6184   -3.6944 C   0  0  0  0  0  0  0  0  0  0  0  0
   20.8240  128.5908   -2.1077 C   0  0  0  0  0  0  0  0  0  0  0  0
   19.8879  129.1490   -3.2082 C   0  0  0  0  0  0  0  0  0  0  0  0
   18.5482  129.1498   -2.7590 O   0  0  0  0  0  0  0  0  0  0  0  0
   17.7025  129.7850   -3.7037 C   0  0  0  0  0  0  0  0  0  0  0  0
   16.2803  129.2266   -3.5614 C   0  0  0  0  0  0  0  0  0  0  0  0
   16.2470  127.7453   -3.8355 C   0  0  0  0  0  0  0  0  0  0  0  0
   16.2250  126.8245   -2.7743 C   0  0  0  0  0  0  0  0  0  0  0  0
   16.2121  125.4507   -3.0346 C   0  0  0  0  0  0  0  0  0  0  0  0
   16.2363  124.9868   -4.3523 C   0  0  0  0  0  0  0  0  0  0  0  0
   16.2700  125.8961   -5.4130 C   0  0  0  0  0  0  0  0  0  0  0  0
   16.2762  127.2708   -5.1576 C   0  0  0  0  0  0  0  0  0  0  0  0
   17.6745  131.2707   -3.4570 C   0  0  0  0  0  0  0  0  0  0  0  0
   17.7513  131.7071   -2.2758 O   0  0  0  0  0  0  0  0  0  0  0  0
   17.5012  132.1764   -4.5571 N   0  0  0  0  0  0  0  0  0  0  0  0
   17.3243  133.6210   -4.3817 C   0  0  0  0  0  0  0  0  0  0  0  0
   15.8631  134.0176   -4.6548 C   0  0  0  0  0  0  0  0  0  0  0  0
   14.9050  133.4076   -3.6243 C   0  0  0  0  0  0  0  0  0  0  0  0
   13.2159  133.8946   -3.9428 S   0  0  0  0  0  6  0  0  0  0  0  0
   13.0214  135.6522   -3.7372 C   0  0  0  0  0  0  0  0  0  0  0  0
   12.3136  133.1867   -2.9720 O   0  0  0  0  0  0  0  0  0  0  0  0
   12.8308  133.5096   -5.3436 O   0  0  0  0  0  0  0  0  0  0  0  0
   18.2427  134.3503   -5.3200 C   0  0  0  0  0  0  0  0  0  0  0  0
   19.1068  135.1473   -4.8684 O   0  0  0  0  0  0  0  0  0  0  0  0
   18.1453  134.1519   -6.6923 O   0  0  0  0  0  1  0  0  0  0  0  0
   20.3996  127.2307   -1.6681 N   0  0  0  0  0  4  0  0  0  0  0  0
   19.5116  127.2699   -0.4883 C   0  0  0  0  0  0  0  0  0  0  0  0
   18.8791  125.8867   -0.1872 C   0  0  0  0  0  0  0  0  0  0  0  0
   19.9054  124.9106    0.2129 N   0  0  0  0  0  4  0  0  0  0  0  0
   17.8063  126.0309    0.9132 C   0  0  0  0  0  0  0  0  0  0  0  0
   16.7765  124.5776    1.0160 S   0  0  0  0  0  1  0  0  0  0  0  0
  1  2  1  0
  2  3  1  0
  3  4  1  0
  3  5  1  0
  5  6  1  0
  6  7  1  0
  7  8  1  0
  8  9  1  0
  9 10  1  0
 10 11  2  0
 11 12  1  0
 12 13  2  0
 13 14  1  0
 14 15  2  0
  8 16  1  0
 16 17  2  0
 16 18  1  0
 18 19  1  0
 19 20  1  0
 20 21  1  0
 21 22  1  0
 22 23  1  0
 22 24  2  0
 22 25  2  0
 19 26  1  0
 26 27  2  0
 26 28  1  0
  5 29  1  0
 29 30  1  0
 30 31  1  0
 31 32  1  0
 31 33  1  0
 33 34  1  0
 15 10  1  0
M  CHG  4  28  -1  29   1  32   1  34  -1
M  END
$$$$
2IEJ_FII
     RDKit          3D

 24 23  0  0  0  0  0  0  0  0999 V2000
   14.1897  129.3370   -5.2538 C   0  0  0  0  0  0  0  0  0  0  0  0
   14.2841  127.8991   -4.8012 C   0  0  0  0  0  0  0  0  0  0  0  0
   13.1695  126.9386   -5.1261 C   0  0  0  0  0  0  0  0  0  0  0  0
   15.3493  127.4460   -4.1069 C   0  0  0  0  0  0  0  0  0  0  0  0
   16.5194  128.3220   -3.7291 C   0  0  0  0  0  0  0  0  0  0  0  0
   17.5718  127.5342   -2.9404 C   0  0  0  0  0  0  0  0  0  0  0  0
   18.7321  128.4245   -2.5506 C   0  0  0  0  0  0  0  0  0  0  0  0
   18.8311  128.9234   -1.1276 C   0  0  0  0  0  0  0  0  0  0  0  0
   19.6458  128.7610   -3.4900 C   0  0  0  0  0  0  0  0  0  0  0  0
   20.8658  129.6079   -3.2278 C   0  0  0  0  0  0  0  0  0  0  0  0
   22.0420  128.7394   -2.7674 C   0  0  0  0  0  0  0  0  0  0  0  0
   23.2583  129.5905   -2.4768 C   0  0  0  0  0  0  0  0  0  0  0  0
   24.4051  129.6064   -3.4599 C   0  0  0  0  0  0  0  0  0  0  0  0
   23.2992  130.3142   -1.3363 C   0  0  0  0  0  0  0  0  0  0  0  0
   24.4612  131.1905   -0.9565 C   0  0  0  0  0  0  0  0  0  0  0  0
   24.1970  131.8039    0.2822 O   0  0  0  0  0  0  0  0  0  0  0  0
   25.2730  132.5855    0.5643 N   0  0  0  0  0  0  0  0  0  0  0  0
   25.2680  133.9809    0.2459 C   0  0  0  0  0  0  0  0  0  0  0  0
   24.2517  134.5011   -0.2880 O   0  0  0  0  0  0  0  0  0  0  0  0
   26.4845  134.8149    0.4932 C   0  0  0  0  0  0  0  0  0  0  0  0
   27.6466  134.6429   -0.8936 P   0  0  0  0  0  5  0  0  0  0  0  0
   28.0815  133.2007   -1.0210 O   0  0  0  0  0  0  0  0  0  0  0  0
   26.8955  135.1325   -2.3277 O   0  0  0  0  0  1  0  0  0  0  0  0
   29.0017  135.6137   -0.6112 O   0  0  0  0  0  1  0  0  0  0  0  0
  1  2  1  0
  2  3  1  0
  2  4  2  3
  4  5  1  0
  5  6  1  0
  6  7  1  0
  7  8  1  0
  7  9  2  0
  9 10  1  0
 10 11  1  0
 11 12  1  0
 12 13  1  0
 12 14  2  0
 14 15  1  0
 15 16  1  0
 16 17  1  0
 17 18  1  0
 18 19  2  0
 18 20  1  0
 20 21  1  0
 21 22  2  0
 21 23  1  0
 21 24  1  0
M  CHG  2  23  -1  24  -1
M  END
$$$$
1LD8_FPP
     RDKit          3D

 24 23  0  0  0  0  0  0  0  0999 V2000
   13.5746  127.4362   -3.9140 C   0  0  0  0  0  0  0  0  0  0  0  0
   13.9056  128.1684   -5.1935 C   0  0  0  0  0  0  0  0  0  0  0  0
   12.9014  128.1915   -6.3169 C   0  0  0  0  0  0  0  0  0  0  0  0
   15.0761  128.8225   -5.3620 C   0  0  0  0  0  0  0  0  0  0  0  0
   16.1887  128.8550   -4.3441 C   0  0  0  0  0  0  0  0  0  0  0  0
   17.1379  127.6675   -4.5386 C   0  0  0  0  0  0  0  0  0  0  0  0
   18.2200  127.6656   -3.4814 C   0  0  0  0  0  0  0  0  0  0  0  0
   18.1311  126.6869   -2.3343 C   0  0  0  0  0  0  0  0  0  0  0  0
   19.2472  128.5375   -3.5847 C   0  0  0  0  0  0  0  0  0  0  0  0
   20.3698  128.6106   -2.5783 C   0  0  0  0  0  0  0  0  0  0  0  0
   21.3929  129.6848   -2.9644 C   0  0  0  0  0  0  0  0  0  0  0  0
   22.5231  129.7395   -1.9595 C   0  0  0  0  0  0  0  0  0  0  0  0
   23.8586  129.1293   -2.3163 C   0  0  0  0  0  0  0  0  0  0  0  0
   22.3125  130.3319   -0.7623 C   0  0  0  0  0  0  0  0  0  0  0  0
   23.3569  130.4384    0.3147 C   0  0  0  0  0  0  0  0  0  0  0  0
   24.3826  131.3005   -0.1163 O   0  0  0  0  0  0  0  0  0  0  0  0
   25.6111  131.3006    1.0646 P   0  0  2  0  0  5  0  0  0  0  0  0
   26.6707  132.2955    0.6479 O   0  0  0  0  0  0  0  0  0  0  0  0
   26.3010  129.7555    1.1443 O   0  0  0  0  0  1  0  0  0  0  0  0
   24.9504  131.7645    2.5648 O   0  0  0  0  0  0  0  0  0  0  0  0
   26.1155  131.4467    3.7635 P   0  0  0  0  0  5  0  0  0  0  0  0
   25.6526  132.0629    5.0633 O   0  0  0  0  0  0  0  0  0  0  0  0
   27.6139  132.1161    3.3486 O   0  0  0  0  0  1  0  0  0  0  0  0
   26.2816  129.7774    3.9832 O   0  0  0  0  0  1  0  0  0  0  0  0
  1  2  1  0
  2  3  1  0
  2  4  2  3
  4  5  1  0
  5  6  1  0
  6  7  1  0
  7  8  1  0
  7  9  2  0
  9 10  1  0
 10 11  1  0
 11 12  1  0
 12 13  1  0
 12 14  2  0
 14 15  1  0
 15 16  1  0
 16 17  1  0
 17 18  2  0
 17 19  1  1
 17 20  1  0
 20 21  1  0
 21 22  2  0
 21 23  1  0
 21 24  1  0
M  CHG  3  19  -1  23  -1  24  -1
M  END
$$$$
