1JCQ_739
     RDKit          3D

 34 34  0  0  0  0  0  0  0  0999 V2000
   22.4061  140.6778    3.2534 C   0  0  0  0  0  0  0  0  0  0  0  0
   21.2353  139.8513    3.7908 C   0  0  0  0  0  0  0  0  0  0  0  0
   20.5266  139.0122    2.6938 C   0  0  0  0  0  0  0  0  0  0  0  0
   19.1328  138.5639    3.1819 C   0  0  0  0  0  0  0  0  0  0  0  0
   21.4156  137.8335    2.1558 C   0  0  0  0  0  0  0  0  0  0  0  0
   20.8022  137.1688    0.8998 C   0  0  0  0  0  0  0  0  0  0  0  0
   19.7001  136.3588    1.2543 O   0  0  0  0  0  0  0  0  0  0  0  0
   19.1744  135.6802    0.1267 C   0  0  0  0  0  0  0  0  0  0  0  0
   19.6801  134.2262    0.1278 C   0  0  0  0  0  0  0  0  0  0  0  0
   19.3526  133.5205   -1.1644 C   0  0  0  0  0  0  0  0  0  0  0  0
   18.2207  132.6938   -1.2607 C   0  0  0  0  0  0  0  0  0  0  0  0
   17.9042  132.0703   -2.4713 C   0  0  0  0  0  0  0  0  0  0  0  0
   18.7115  132.2705   -3.5944 C   0  0  0  0  0  0  0  0  0  0  0  0
   19.8353  133.0968   -3.5091 C   0  0  0  0  0  0  0  0  0  0  0  0
   20.1546  133.7230   -2.3003 C   0  0  0  0  0  0  0  0  0  0  0  0
   17.6715  135.7090    0.2107 C   0  0  0  0  0  0  0  0  0  0  0  0
   16.9994  135.8146   -0.8509 O   0  0  0  0  0  0  0  0  0  0  0  0
   17.0100  135.5825    1.4831 N   0  0  0  0  0  0  0  0  0  0  0  0
   15.5534  135.5659    1.6584 C   0  0  0  0  0  0  0  0  0  0  0  0
   14.9355  134.2716    1.0840 C   0  0  0  0  0  0  0  0  0  0  0  0
   15.4768  132.9924    1.7442 C   0  0  0  0  0  0  0  0  0  0  0  0
   14.9079  132.7788    3.4286 S   0  0  0  0  0  6  0  0  0  0  0  0
   15.1173  131.0761    3.8978 C   0  0  0  0  0  0  0  0  0  0  0  0
   15.7156  133.6409    4.3575 O   0  0  0  0  0  0  0  0  0  0  0  0
   13.4545  133.1450    3.5413 O   0  0  0  0  0  0  0  0  0  0  0  0
   14.9395  136.8131    1.0776 C   0  0  0  0  0  0  0  0  0  0  0  0
   14.3365  136.7892   -0.0287 O   0  0  0  0  0  0  0  0  0  0  0  0
   15.0786  138.0200    1.7513 O   0  0  0  0  0  1  0  0  0  0  0  0
   21.7570  136.8175    3.1983 N   0  0  0  0  0  4  0  0  0  0  0  0
   23.2028  136.7377    3.4893 C   0  0  0  0  0  0  0  0  0  0  0  0
   24.0300  136.0746    2.3511 C   0  0  0  0  0  0  0  0  0  0  0  0
   23.7183  134.6429    2.2117 N   0  0  0  0  0  4  0  0  0  0  0  0
   25.5438  136.2924    2.5682 C   0  0  0  0  0  0  0  0  0  0  0  0
   26.1539  135.4973    4.0474 S   0  0  0  0  0  1  0  0  0  0  0  0
  1  2  1  0
  2  3  1  0
  3  4  1  0
  3  5  1  0
  5  6  1  0
  6  7  1  0
  7  8  1  0
  8  9  1  0
  9 10  1  0
 10 11  2  0
 11 12  1  0
 12 13  2  0
 13 14  1  0
 14 15  2  0
  8 16  1  0
 16 17  2  0
 16 18  1  0
 18 19  1  0
 19 20  1  0
 20 21  1  0
 21 22  1  0
 22 23  1  0
 22 24  2  0
 22 25  2  0
 19 26  1  0
 26 27  2  0
 26 28  1  0
  5 29  1  0
 29 30  1  0
 30 31  1  0
 31 32  1  0
 31 33  1  0
 33 34  1  0
 15 10  1  0
M  CHG  4  28  -1  29   1  32   1  34  -1
M  END
$$$$
1SA4_JAN
     RDKit          3D

 34 38  0  0  0  0  0  0  0  0999 V2000
   21.8341  132.3866    2.7366 C   0  0  0  0  0  0  0  0  0  0  0  0
   20.4488  132.6474    2.3518 N   0  0  0  0  0  0  0  0  0  0  0  0
   19.4429  132.8995    3.2119 C   0  0  0  0  0  0  0  0  0  0  0  0
   18.2700  133.1282    2.5900 N   0  0  0  0  0  0  0  0  0  0  0  0
   18.5589  133.0237    1.2785 C   0  0  0  0  0  0  0  0  0  0  0  0
   19.9077  132.7401    1.1139 C   0  0  0  0  0  0  0  0  0  0  0  0
   20.6399  132.4915   -0.2178 C   0  0  0  0  0  0  0  0  0  0  0  0
   21.8208  133.3901   -0.2778 N   0  0  0  0  0  4  0  0  0  0  0  0
   19.6819  132.8091   -1.3901 C   0  0  0  0  0  0  0  0  0  0  0  0
   18.8513  131.8114   -1.9547 C   0  0  0  0  0  0  0  0  0  0  0  0
   17.9450  132.1221   -2.9718 C   0  0  0  0  0  0  0  0  0  0  0  0
   17.8249  133.4348   -3.4288 C   0  0  0  0  0  0  0  0  0  0  0  0
   16.6815  133.8214   -4.7015 Cl  0  0  0  0  0  0  0  0  0  0  0  0
   18.6021  134.4425   -2.8569 C   0  0  0  0  0  0  0  0  0  0  0  0
   19.5105  134.1388   -1.8394 C   0  0  0  0  0  0  0  0  0  0  0  0
   21.1178  131.0239   -0.3276 C   0  0  0  0  0  0  0  0  0  0  0  0
   22.0677  130.6689   -1.2984 C   0  0  0  0  0  0  0  0  0  0  0  0
   22.4975  129.3509   -1.4406 C   0  0  0  0  0  0  0  0  0  0  0  0
   21.9714  128.3168   -0.6336 C   0  0  0  0  0  0  0  0  0  0  0  0
   20.9619  128.6501    0.3097 C   0  0  0  0  0  0  0  0  0  0  0  0
   20.5512  129.9923    0.4482 C   0  0  0  0  0  0  0  0  0  0  0  0
   20.4026  127.6282    1.1074 C   0  0  0  0  0  0  0  0  0  0  0  0
   19.3176  127.8811    2.0825 C   0  0  0  0  0  0  0  0  0  0  0  0
   18.0412  128.2651    1.6394 C   0  0  0  0  0  0  0  0  0  0  0  0
   17.0236  128.5184    2.5635 C   0  0  0  0  0  0  0  0  0  0  0  0
   17.2702  128.3812    3.9325 C   0  0  0  0  0  0  0  0  0  0  0  0
   18.5356  127.9868    4.3804 C   0  0  0  0  0  0  0  0  0  0  0  0
   18.8437  127.8152    6.0985 Cl  0  0  0  0  0  0  0  0  0  0  0  0
   19.5568  127.7331    3.4577 C   0  0  0  0  0  0  0  0  0  0  0  0
   20.8800  126.3267    0.9781 C   0  0  0  0  0  0  0  0  0  0  0  0
   21.8763  126.0285    0.0526 C   0  0  0  0  0  0  0  0  0  0  0  0
   22.2709  124.8329   -0.0322 O   0  0  0  0  0  0  0  0  0  0  0  0
   22.4117  127.0097   -0.7489 N   0  0  0  0  0  0  0  0  0  0  0  0
   23.4618  126.6559   -1.7264 C   0  0  0  0  0  0  0  0  0  0  0  0
  1  2  1  0
  2  3  1  0
  3  4  2  0
  4  5  1  0
  5  6  2  0
  6  7  1  0
  7  8  1  0
  7  9  1  0
  9 10  2  0
 10 11  1  0
 11 12  2  0
 12 13  1  0
 12 14  1  0
 14 15  2  0
  7 16  1  0
 16 17  2  0
 17 18  1  0
 18 19  2  0
 19 20  1  0
 20 21  2  0
 20 22  1  0
 22 23  1  0
 23 24  2  0
 24 25  1  0
 25 26  2  0
 26 27  1  0
 27 28  1  0
 27 29  2  0
 22 30  2  0
 30 31  1  0
 31 32  2  0
 31 33  1  0
 33 34  1  0
  6  2  1  0
 15  9  1  0
 21 16  1  0
 29 23  1  0
 33 19  1  0
M  CHG  1   8   1
M  END
$$$$
1MZC_BNE
     RDKit          3D

 35 38  0  0  0  0  0  0  0  0999 V2000
   16.1108  137.8448   -4.9125 C   0  0  0  0  0  0  0  0  0  0  0  0
   16.1024  136.3633   -4.4996 C   0  0  0  0  0  0  0  0  0  0  0  0
   15.3064  135.3429   -5.4047 C   0  0  0  0  0  0  0  0  0  0  0  0
   14.7796  134.1799   -4.5222 C   0  0  0  0  0  0  0  0  0  0  0  0
   13.5906  133.4853   -4.8509 C   0  0  0  0  0  0  0  0  0  0  0  0
   13.1618  132.3932   -4.0943 C   0  0  0  0  0  0  0  0  0  0  0  0
   13.9296  131.9327   -3.0273 C   0  0  0  0  0  0  0  0  0  0  0  0
   15.1482  132.5405   -2.7241 C   0  0  0  0  0  0  0  0  0  0  0  0
   15.9138  132.0192   -1.6697 O   0  0  0  0  0  0  0  0  0  0  0  0
   17.2860  132.2464   -1.4885 C   0  0  0  0  0  0  0  0  0  0  0  0
   17.7217  132.7288   -0.2487 C   0  0  0  0  0  0  0  0  0  0  0  0
   19.0902  132.9865   -0.0034 C   0  0  0  0  0  0  0  0  0  0  0  0
   19.6217  133.5503    1.3342 C   0  0  0  0  0  0  0  0  0  0  0  0
   18.5067  133.7171    2.3935 C   0  0  0  0  0  0  0  0  0  0  0  0
   20.2206  134.8735    1.0590 N   0  0  0  0  0  4  0  0  0  0  0  0
   20.6521  132.5701    1.9182 C   0  0  0  0  0  0  0  0  0  0  0  0
   20.6119  131.1929    1.7552 C   0  0  0  0  0  0  0  0  0  0  0  0
   21.5770  130.6125    2.4925 N   0  0  0  0  0  0  0  0  0  0  0  0
   22.1841  131.6403    3.1157 C   0  0  0  0  0  0  0  0  0  0  0  0
   21.6401  132.8354    2.8088 N   0  0  0  0  0  0  0  0  0  0  0  0
   22.0599  134.1082    3.3916 C   0  0  0  0  0  0  0  0  0  0  0  0
   20.0066  132.7386   -1.0462 C   0  0  0  0  0  0  0  0  0  0  0  0
   19.5812  132.2310   -2.2742 C   0  0  0  0  0  0  0  0  0  0  0  0
   18.2270  131.9745   -2.5018 C   0  0  0  0  0  0  0  0  0  0  0  0
   17.8279  131.3936   -3.7600 C   0  0  0  0  0  0  0  0  0  0  0  0
   17.5072  130.9289   -4.7703 N   0  0  0  0  0  0  0  0  0  0  0  0
   15.5666  133.6601   -3.4665 C   0  0  0  0  0  0  0  0  0  0  0  0
   16.2332  134.6372   -6.4490 C   0  0  0  0  0  0  0  0  0  0  0  0
   16.9650  135.5155   -7.4756 C   0  0  0  0  0  0  0  0  0  0  0  0
   16.0911  135.9150   -8.6668 C   0  0  0  0  0  0  0  0  0  0  0  0
   14.9487  136.8477   -8.2822 C   0  0  0  0  0  0  0  0  0  0  0  0
   13.9481  136.1439   -7.4771 N   0  0  0  0  0  0  0  0  0  0  0  0
   12.6184  135.9254   -8.0489 C   0  0  0  0  0  0  0  0  0  0  0  0
   14.1139  136.0498   -6.0520 C   0  0  0  0  0  0  0  0  0  0  0  0
   13.2107  136.5180   -5.3037 O   0  0  0  0  0  0  0  0  0  0  0  0
  1  2  1  0
  2  3  1  0
  3  4  1  0
  4  5  2  0
  5  6  1  0
  6  7  2  0
  7  8  1  0
  8  9  1  0
  9 10  1  0
 10 11  2  0
 11 12  1  0
 12 13  1  0
 13 14  1  0
 13 15  1  0
 13 16  1  0
 16 17  2  0
 17 18  1  0
 18 19  2  0
 19 20  1  0
 20 21  1  0
 12 22  2  0
 22 23  1  0
 23 24  2  0
 24 25  1  0
 25 26  3  0
  8 27  2  0
  3 28  1  0
 28 29  1  0
 29 30  1  0
 30 31  1  0
 31 32  1  0
 32 33  1  0
 32 34  1  0
 34 35  2  0
 34  3  1  0
 27  4  1  0
 24 10  1  0
 20 16  1  0
M  CHG  1  15   1
M  END
$$$$
1LD7_U66
     RDKit          3D

 34 39  0  0  0  0  0  0  0  0999 V2000
   -0.5000    2.2450    2.2917 N   0  0  0  0  0  0  0  0  0  0  0  0
    0.2699    1.5244    1.8148 C   0  0  0  0  0  0  0  0  0  0  0  0
    1.2499    0.6040    1.2048 C   0  0  0  0  0  0  0  0  0  0  0  0
    1.6135    1.0970   -0.2119 C   0  0  0  0  0  0  0  0  0  0  0  0
    0.4600    0.8490   -1.1421 C   0  0  0  0  0  0  0  0  0  0  0  0
   -0.1675   -0.3384   -1.1018 C   0  0  0  0  0  0  0  0  0  0  0  0
    0.3912   -1.4160   -0.2009 C   0  0  0  0  0  0  0  0  0  0  0  0
    0.7081   -0.8680    1.2164 C   0  0  0  0  0  0  0  0  0  0  0  0
    1.6932   -1.6984    1.8368 O   0  0  0  0  0  0  0  0  0  0  0  0
    1.5013   -2.9948    2.3412 C   0  0  0  0  0  0  0  0  0  0  0  0
    2.6313   -3.6796    2.7957 C   0  0  0  0  0  0  0  0  0  0  0  0
    2.5240   -4.9650    3.3228 C   0  0  0  0  0  0  0  0  0  0  0  0
    1.2748   -5.5914    3.4055 C   0  0  0  0  0  0  0  0  0  0  0  0
    1.1727   -6.8831    3.9418 C   0  0  0  0  0  0  0  0  0  0  0  0
   -0.0682   -7.5116    4.0261 C   0  0  0  0  0  0  0  0  0  0  0  0
   -1.2159   -6.8601    3.5770 C   0  0  0  0  0  0  0  0  0  0  0  0
   -1.1421   -5.5646    3.0409 C   0  0  0  0  0  0  0  0  0  0  0  0
    0.1125   -4.9171    2.9477 C   0  0  0  0  0  0  0  0  0  0  0  0
    0.2377   -3.6159    2.4197 C   0  0  0  0  0  0  0  0  0  0  0  0
   -2.3447   -4.9439    2.5596 N   0  0  0  0  0  0  0  0  0  0  0  0
   -3.4918   -4.6981    3.4265 C   0  0  0  0  0  0  0  0  0  0  0  0
   -4.7390   -5.1356    2.6358 C   0  0  0  0  0  0  0  0  0  0  0  0
   -4.2941   -5.2905    1.1663 C   0  0  0  0  0  0  0  0  0  0  0  0
   -4.9068   -4.3116    0.2389 N   0  0  0  0  0  4  0  0  0  0  0  0
   -4.6946   -2.8773    0.5435 C   0  0  0  0  0  0  0  0  0  0  0  0
   -3.3764   -2.3234   -0.0325 C   0  0  0  0  0  0  0  0  0  0  0  0
   -3.3712   -0.8147   -0.1178 C   0  0  0  0  0  0  0  0  0  0  0  0
   -4.1094    0.0587    0.6605 C   0  0  0  0  0  0  0  0  0  0  0  0
   -3.7972    1.3280    0.3343 N   0  0  0  0  0  0  0  0  0  0  0  0
   -2.8623    1.2071   -0.6296 C   0  0  0  0  0  0  0  0  0  0  0  0
   -2.5752   -0.0783   -0.9218 N   0  0  0  0  0  0  0  0  0  0  0  0
   -1.4899   -0.5249   -1.7996 C   0  0  0  0  0  0  0  0  0  0  0  0
   -2.8176   -5.1942    1.2477 C   0  0  0  0  0  0  0  0  0  0  0  0
   -2.0482   -5.4020    0.2712 O   0  0  0  0  0  0  0  0  0  0  0  0
  1  2  3  0
  2  3  1  0
  3  4  1  0
  4  5  1  0
  5  6  2  0
  6  7  1  0
  7  8  1  0
  8  9  1  0
  9 10  1  0
 10 11  2  0
 11 12  1  0
 12 13  2  0
 13 14  1  0
 14 15  2  0
 15 16  1  0
 16 17  2  0
 17 18  1  0
 18 19  2  0
 17 20  1  0
 20 21  1  0
 21 22  1  0
 22 23  1  0
 23 24  1  0
 24 25  1  0
 25 26  1  0
 26 27  1  0
 27 28  2  0
 28 29  1  0
 29 30  2  0
 30 31  1  0
 31 32  1  0
 23 33  1  0
 33 34  2  0
  8  3  1  0
 19 10  1  0
 33 20  1  0
 32  6  1  0
 18 13  1  0
 31 27  1  0
M  CHG  1  24   1
M  END
$$$$
1S63_778
     RDKit          3D

 29 32  0  0  0  0  0  0  0  0999 V2000
   17.9771  131.1837   -5.8601 N   0  0  0  0  0  0  0  0  0  0  0  0
   18.2908  131.6732   -4.8595 C   0  0  0  0  0  0  0  0  0  0  0  0
   18.6801  132.2842   -3.6158 C   0  0  0  0  0  0  0  0  0  0  0  0
   17.8710  132.1453   -2.4815 C   0  0  0  0  0  0  0  0  0  0  0  0
   18.2344  132.7633   -1.2810 C   0  0  0  0  0  0  0  0  0  0  0  0
   19.4032  133.5392   -1.2089 C   0  0  0  0  0  0  0  0  0  0  0  0
   19.7632  134.2497    0.0679 C   0  0  0  0  0  0  0  0  0  0  0  0
   18.6807  135.1407    0.4966 N   0  0  0  0  0  0  0  0  0  0  0  0
   17.9265  134.9913    1.6044 C   0  0  0  0  0  0  0  0  0  0  0  0
   17.0411  135.9963    1.7722 N   0  0  0  0  0  0  0  0  0  0  0  0
   17.2538  136.8122    0.7204 C   0  0  0  0  0  0  0  0  0  0  0  0
   18.2582  136.2918   -0.0676 C   0  0  0  0  0  0  0  0  0  0  0  0
   18.7694  136.8938   -1.3544 C   0  0  0  0  0  0  0  0  0  0  0  0
   18.0099  136.4148   -2.5365 N   0  0  0  0  0  4  0  0  0  0  0  0
   18.7521  136.7345   -3.7752 C   0  0  0  0  0  0  0  0  0  0  0  0
   18.0928  136.0696   -4.9892 C   0  0  0  0  0  0  0  0  0  0  0  0
   16.6609  136.3814   -5.0597 N   0  0  0  0  0  0  0  0  0  0  0  0
   15.9685  136.2559   -6.3183 C   0  0  0  0  0  0  0  0  0  0  0  0
   15.0505  137.2404   -6.7229 C   0  0  0  0  0  0  0  0  0  0  0  0
   14.3841  137.1258   -7.9464 C   0  0  0  0  0  0  0  0  0  0  0  0
   14.6292  136.0304   -8.7782 C   0  0  0  0  0  0  0  0  0  0  0  0
   15.5438  135.0470   -8.3885 C   0  0  0  0  0  0  0  0  0  0  0  0
   15.8499  133.6708   -9.4322 Cl  0  0  0  0  0  0  0  0  0  0  0  0
   16.2133  135.1593   -7.1650 C   0  0  0  0  0  0  0  0  0  0  0  0
   15.9293  136.6300   -3.8437 C   0  0  0  0  0  0  0  0  0  0  0  0
   14.6694  136.5718   -3.8312 O   0  0  0  0  0  0  0  0  0  0  0  0
   16.6579  137.0155   -2.5863 C   0  0  0  0  0  0  0  0  0  0  0  0
   20.2234  133.6547   -2.3437 C   0  0  0  0  0  0  0  0  0  0  0  0
   19.8620  133.0311   -3.5413 C   0  0  0  0  0  0  0  0  0  0  0  0
  1  2  3  0
  2  3  1  0
  3  4  2  0
  4  5  1  0
  5  6  2  0
  6  7  1  0
  7  8  1  0
  8  9  1  0
  9 10  2  0
 10 11  1  0
 11 12  2  0
 12 13  1  0
 13 14  1  0
 14 15  1  0
 15 16  1  0
 16 17  1  0
 17 18  1  0
 18 19  2  0
 19 20  1  0
 20 21  2  0
 21 22  1  0
 22 23  1  0
 22 24  2  0
 17 25  1  0
 25 26  2  0
 25 27  1  0
  6 28  1  0
 28 29  2  0
 29  3  1  0
 12  8  1  0
 27 14  1  0
 24 18  1  0
M  CHG  1  14   1
M  END
$$$$
3E37_ED5
     RDKit          3D

 43 46  0  0  0  0  0  0  0  0999 V2000
   13.7261  138.6503    2.1970 C   0  0  0  0  0  0  0  0  0  0  0  0
   15.1300  138.9262    2.6675 C   0  0  0  0  0  0  0  0  0  0  0  0
   15.3199  139.4744    3.9486 C   0  0  0  0  0  0  0  0  0  0  0  0
   16.6047  139.7339    4.4277 C   0  0  0  0  0  0  0  0  0  0  0  0
   17.7159  139.4459    3.6376 C   0  0  0  0  0  0  0  0  0  0  0  0
   17.5476  138.8906    2.3684 C   0  0  0  0  0  0  0  0  0  0  0  0
   16.2622  138.6145    1.8717 C   0  0  0  0  0  0  0  0  0  0  0  0
   16.1037  137.8938    0.2606 S   0  0  0  0  0  6  0  0  0  0  0  0
   15.2014  136.6937    0.3522 O   0  0  0  0  0  0  0  0  0  0  0  0
   15.4856  138.9095   -0.6602 O   0  0  0  0  0  0  0  0  0  0  0  0
   17.6896  137.4043   -0.3122 N   0  0  0  0  0  0  0  0  0  0  0  0
   17.9936  136.0169    0.0908 C   0  0  0  0  0  0  0  0  0  0  0  0
   19.4965  135.7015    0.0062 C   0  0  0  0  0  0  0  0  0  0  0  0
   19.7086  134.2483   -0.0143 N   0  0  0  0  0  0  0  0  0  0  0  0
   20.3550  133.5554    1.1051 C   0  0  0  0  0  0  0  0  0  0  0  0
   19.3562  132.7108    1.8402 C   0  0  0  0  0  0  0  0  0  0  0  0
   18.3890  133.1765    2.7036 C   0  0  0  0  0  0  0  0  0  0  0  0
   17.6379  132.1411    3.1317 N   0  0  0  0  0  0  0  0  0  0  0  0
   18.1625  131.0629    2.5102 C   0  0  0  0  0  0  0  0  0  0  0  0
   19.1993  131.3803    1.7101 N   0  0  0  0  0  0  0  0  0  0  0  0
   20.0068  130.4524    0.9236 C   0  0  0  0  0  0  0  0  0  0  0  0
   19.3947  133.5227   -1.2139 C   0  0  0  0  0  0  0  0  0  0  0  0
   18.2224  132.7561   -1.2911 C   0  0  0  0  0  0  0  0  0  0  0  0
   17.8668  132.1333   -2.4908 C   0  0  0  0  0  0  0  0  0  0  0  0
   18.6790  132.2750   -3.6229 C   0  0  0  0  0  0  0  0  0  0  0  0
   18.2904  131.6706   -4.8698 C   0  0  0  0  0  0  0  0  0  0  0  0
   17.9769  131.1864   -5.8730 N   0  0  0  0  0  0  0  0  0  0  0  0
   19.8587  133.0259   -3.5443 C   0  0  0  0  0  0  0  0  0  0  0  0
   20.2136  133.6497   -2.3447 C   0  0  0  0  0  0  0  0  0  0  0  0
   17.9657  137.7715   -1.7277 C   0  0  0  0  0  0  0  0  0  0  0  0
   17.6548  136.6913   -2.8031 C   0  0  0  0  0  0  0  0  0  0  0  0
   16.1511  136.4078   -2.9451 C   0  0  0  0  0  0  0  0  0  0  0  0
   15.8969  135.3235   -3.9971 C   0  0  0  0  0  0  0  0  0  0  0  0
   16.5671  135.6393   -5.2675 N   0  0  0  0  0  0  0  0  0  0  0  0
   16.0211  135.1067   -6.4910 C   0  0  0  0  0  0  0  0  0  0  0  0
   16.6326  135.2784   -7.5807 O   0  0  0  0  0  0  0  0  0  0  0  0
   14.8124  134.3915   -6.4591 O   0  0  0  0  0  0  0  0  0  0  0  0
   14.1718  133.7486   -7.5707 C   0  0  0  0  0  0  0  0  0  0  0  0
   12.8923  133.0881   -7.0355 C   0  0  0  0  0  0  0  0  0  0  0  0
   13.7858  134.7807   -8.6475 C   0  0  0  0  0  0  0  0  0  0  0  0
   15.0837  132.6577   -8.1639 C   0  0  0  0  0  0  0  0  0  0  0  0
   17.9735  136.0710   -5.2358 C   0  0  0  0  0  0  0  0  0  0  0  0
   18.2010  137.1446   -4.1679 C   0  0  0  0  0  0  0  0  0  0  0  0
  1  2  1  0
  2  3  2  0
  3  4  1  0
  4  5  2  0
  5  6  1  0
  6  7  2  0
  7  8  1  0
  8  9  2  0
  8 10  2  0
  8 11  1  0
 11 12  1  0
 12 13  1  0
 13 14  1  0
 14 15  1  0
 15 16  1  0
 16 17  2  0
 17 18  1  0
 18 19  2  0
 19 20  1  0
 20 21  1  0
 14 22  1  0
 22 23  2  0
 23 24  1  0
 24 25  2  0
 25 26  1  0
 26 27  3  0
 25 28  1  0
 28 29  2  0
 11 30  1  0
 30 31  1  0
 31 32  1  0
 32 33  1  0
 33 34  1  0
 34 35  1  0
 35 36  2  0
 35 37  1  0
 37 38  1  0
 38 39  1  0
 38 40  1  0
 38 41  1  0
 34 42  1  0
 42 43  1  0
  7  2  1  0
 20 16  1  0
 29 22  1  0
 43 31  1  0
M  END
$$$$
2IEJ_S48
     RDKit          3D

 38 42  0  0  0  0  0  0  0  0999 V2000
    2.7141    7.8111   -7.3043 C   0  0  0  0  0  0  0  0  0  0  0  0
    2.8323    7.1427   -6.0546 O   0  0  0  0  0  0  0  0  0  0  0  0
    1.7219    6.6978   -5.3315 C   0  0  0  0  0  0  0  0  0  0  0  0
    0.5520    6.9111   -5.7531 O   0  0  0  0  0  0  0  0  0  0  0  0
    1.9258    5.9969   -4.0231 C   0  0  0  0  0  0  0  0  0  0  0  0
    1.1057    4.7637   -3.9553 N   0  0  0  0  0  0  0  0  0  0  0  0
    0.8815    4.2750   -2.5580 C   0  0  0  0  0  0  0  0  0  0  0  0
   -0.1009    3.0793   -2.5422 C   0  0  0  0  0  0  0  0  0  0  0  0
   -0.1818    2.5268   -1.1521 C   0  0  0  0  0  0  0  0  0  0  0  0
   -0.1391    1.1448   -0.9145 C   0  0  0  0  0  0  0  0  0  0  0  0
   -0.1680    0.6467    0.3984 C   0  0  0  0  0  0  0  0  0  0  0  0
   -0.0896   -0.8146    0.6502 C   0  0  0  0  0  0  0  0  0  0  0  0
    0.7033   -1.3183    1.6989 C   0  0  0  0  0  0  0  0  0  0  0  0
    0.7833   -2.6954    1.9274 C   0  0  0  0  0  0  0  0  0  0  0  0
    0.0747   -3.5832    1.1149 C   0  0  0  0  0  0  0  0  0  0  0  0
   -0.7153   -3.0958    0.0714 C   0  0  0  0  0  0  0  0  0  0  0  0
   -0.7983   -1.7198   -0.1624 C   0  0  0  0  0  0  0  0  0  0  0  0
   -0.2503    1.5545    1.4677 C   0  0  0  0  0  0  0  0  0  0  0  0
   -0.3013    2.9305    1.2301 C   0  0  0  0  0  0  0  0  0  0  0  0
   -0.2759    3.4281   -0.0850 C   0  0  0  0  0  0  0  0  0  0  0  0
   -0.2999    4.8467   -0.3725 N   0  0  0  0  0  0  0  0  0  0  0  0
   -0.8942    5.8126    0.5659 C   0  0  0  0  0  0  0  0  0  0  0  0
   -2.3331    5.4780    0.8554 C   0  0  0  0  0  0  0  0  0  0  0  0
   -2.8408    5.0711    2.0710 C   0  0  0  0  0  0  0  0  0  0  0  0
   -4.1628    4.8345    1.9472 N   0  0  0  0  0  0  0  0  0  0  0  0
   -4.4349    5.1085    0.6536 C   0  0  0  0  0  0  0  0  0  0  0  0
   -3.3464    5.5120   -0.0303 N   0  0  0  0  0  0  0  0  0  0  0  0
   -3.2912    5.8463   -1.4493 C   0  0  0  0  0  0  0  0  0  0  0  0
    0.3008    5.3753   -1.6153 C   0  0  0  0  0  0  0  0  0  0  0  0
    1.8701    3.5195   -4.9542 S   0  0  0  0  0  6  0  0  0  0  0  0
    2.6893    4.1265   -6.0596 O   0  0  0  0  0  0  0  0  0  0  0  0
    0.7986    2.6800   -5.5924 O   0  0  0  0  0  0  0  0  0  0  0  0
    2.9357    2.4814   -4.0134 C   0  0  0  0  0  0  0  0  0  0  0  0
    2.6935    1.1681   -3.6776 C   0  0  0  0  0  0  0  0  0  0  0  0
    3.6953    0.7670   -2.8811 N   0  0  0  0  0  0  0  0  0  0  0  0
    3.7857   -0.5025   -2.1720 C   0  0  0  0  0  0  0  0  0  0  0  0
    4.5065    1.8335   -2.7377 C   0  0  0  0  0  0  0  0  0  0  0  0
    4.0718    2.9104   -3.4266 N   0  0  0  0  0  0  0  0  0  0  0  0
  1  2  1  0
  2  3  1  0
  3  4  2  0
  3  5  1  0
  5  6  1  0
  6  7  1  0
  7  8  1  0
  8  9  1  0
  9 10  2  0
 10 11  1  0
 11 12  1  0
 12 13  2  0
 13 14  1  0
 14 15  2  0
 15 16  1  0
 16 17  2  0
 11 18  2  0
 18 19  1  0
 19 20  2  0
 20 21  1  0
 21 22  1  0
 22 23  1  0
 23 24  2  0
 24 25  1  0
 25 26  2  0
 26 27  1  0
 27 28  1  0
 21 29  1  0
  6 30  1  0
 30 31  2  0
 30 32  2  0
 30 33  1  0
 33 34  2  0
 34 35  1  0
 35 36  1  0
 35 37  1  0
 37 38  2  0
 29  7  1  0
 38 33  1  0
 20  9  1  0
 27 23  1  0
 17 12  1  0
M  END
$$$$
