1JCQ_739
     RDKit          3D

 34 34  0  0  0  0  0  0  0  0999 V2000
   17.3858  129.2726    5.4084 C   0  0  0  0  0  0  0  0  0  0  0  0
   18.5098  130.0153    4.6852 C   0  0  0  0  0  0  0  0  0  0  0  0
   18.9480  129.2959    3.3752 C   0  0  0  0  0  0  0  0  0  0  0  0
   18.0011  129.7252    2.2354 C   0  0  0  0  0  0  0  0  0  0  0  0
   20.4600  129.5791    3.0599 C   0  0  0  0  0  0  0  0  0  0  0  0
   20.8551  129.2341    1.5922 C   0  0  0  0  0  0  0  0  0  0  0  0
   20.4528  130.2483    0.6854 O   0  0  0  0  0  0  0  0  0  0  0  0
   21.4559  131.2412    0.5285 C   0  0  0  0  0  0  0  0  0  0  0  0
   20.8054  132.5440    0.0194 C   0  0  0  0  0  0  0  0  0  0  0  0
   20.0231  132.3706   -1.2629 C   0  0  0  0  0  0  0  0  0  0  0  0
   20.5904  132.7272   -2.4989 C   0  0  0  0  0  0  0  0  0  0  0  0
   19.8700  132.5510   -3.6840 C   0  0  0  0  0  0  0  0  0  0  0  0
   18.5773  132.0227   -3.6460 C   0  0  0  0  0  0  0  0  0  0  0  0
   18.0017  131.6724   -2.4221 C   0  0  0  0  0  0  0  0  0  0  0  0
   18.7190  131.8468   -1.2348 C   0  0  0  0  0  0  0  0  0  0  0  0
   22.5376  130.7516   -0.4104 C   0  0  0  0  0  0  0  0  0  0  0  0
   22.2044  130.3046   -1.5410 O   0  0  0  0  0  0  0  0  0  0  0  0
   23.9024  130.5954    0.0188 N   0  0  0  0  0  0  0  0  0  0  0  0
   24.8200  131.6781    0.4130 C   0  0  0  0  0  0  0  0  0  0  0  0
   25.4755  132.3607   -0.8107 C   0  0  0  0  0  0  0  0  0  0  0  0
   24.4848  132.8652   -1.8693 C   0  0  0  0  0  0  0  0  0  0  0  0
   25.3042  133.8706   -3.0969 S   0  0  0  0  0  6  0  0  0  0  0  0
   26.5600  132.9292   -3.9366 C   0  0  0  0  0  0  0  0  0  0  0  0
   25.9320  135.0666   -2.4380 O   0  0  0  0  0  0  0  0  0  0  0  0
   24.2885  134.3376   -4.1008 O   0  0  0  0  0  0  0  0  0  0  0  0
   24.2215  132.6461    1.4023 C   0  0  0  0  0  0  0  0  0  0  0  0
   24.0732  132.2947    2.6026 O   0  0  0  0  0  0  0  0  0  0  0  0
   23.8606  133.9344    1.0275 O   0  0  0  0  0  1  0  0  0  0  0  0
   21.3409  128.8218    3.9920 N   0  0  0  0  0  4  0  0  0  0  0  0
   22.6003  129.5453    4.2559 C   0  0  0  0  0  0  0  0  0  0  0  0
   23.6489  128.6640    4.9819 C   0  0  0  0  0  0  0  0  0  0  0  0
   24.9175  129.3935    5.1183 N   0  0  0  0  0  4  0  0  0  0  0  0
   23.1696  128.1336    6.3538 C   0  0  0  0  0  0  0  0  0  0  0  0
   22.7199  129.4381    7.4886 S   0  0  0  0  0  1  0  0  0  0  0  0
  1  2  1  0
  2  3  1  0
  3  4  1  0
  3  5  1  0
  5  6  1  0
  6  7  1  0
  7  8  1  0
  8  9  1  0
  9 10  1  0
 10 11  2  0
 11 12  1  0
 12 13  2  0
 13 14  1  0
 14 15  2  0
  8 16  1  0
 16 17  2  0
 16 18  1  0
 18 19  1  0
 19 20  1  0
 20 21  1  0
 21 22  1  0
 22 23  1  0
 22 24  2  0
 22 25  2  0
 19 26  1  0
 26 27  2  0
 26 28  1  0
  5 29  1  0
 29 30  1  0
 30 31  1  0
 31 32  1  0
 31 33  1  0
 33 34  1  0
 15 10  1  0
M  CHG  4  28  -1  29   1  32   1  34  -1
M  END
$$$$
1SA4_JAN
     RDKit          3D

 34 38  0  0  0  0  0  0  0  0999 V2000
   19.2126  135.2297   -0.7166 C   0  0  0  0  0  0  0  0  0  0  0  0
   20.5237  135.1300   -0.0764 N   0  0  0  0  0  0  0  0  0  0  0  0
   21.2067  136.1762    0.4297 C   0  0  0  0  0  0  0  0  0  0  0  0
   22.3233  135.8047    1.0837 N   0  0  0  0  0  0  0  0  0  0  0  0
   22.3451  134.4636    0.9693 C   0  0  0  0  0  0  0  0  0  0  0  0
   21.2642  134.0308    0.2137 C   0  0  0  0  0  0  0  0  0  0  0  0
   20.8473  132.5561    0.0392 C   0  0  0  0  0  0  0  0  0  0  0  0
   20.0781  132.2123    1.2583 N   0  0  0  0  0  4  0  0  0  0  0  0
   20.0166  132.3701   -1.2476 C   0  0  0  0  0  0  0  0  0  0  0  0
   20.5799  132.7232   -2.4956 C   0  0  0  0  0  0  0  0  0  0  0  0
   19.8675  132.5497   -3.6843 C   0  0  0  0  0  0  0  0  0  0  0  0
   18.5770  132.0223   -3.6576 C   0  0  0  0  0  0  0  0  0  0  0  0
   17.6828  131.8096   -5.1516 Cl  0  0  0  0  0  0  0  0  0  0  0  0
   17.9959  131.6719   -2.4387 C   0  0  0  0  0  0  0  0  0  0  0  0
   18.7028  131.8414   -1.2447 C   0  0  0  0  0  0  0  0  0  0  0  0
   22.0815  131.6216   -0.0941 C   0  0  0  0  0  0  0  0  0  0  0  0
   22.0019  130.2567    0.2410 C   0  0  0  0  0  0  0  0  0  0  0  0
   23.0875  129.4004    0.0633 C   0  0  0  0  0  0  0  0  0  0  0  0
   24.3071  129.8621   -0.4786 C   0  0  0  0  0  0  0  0  0  0  0  0
   24.3962  131.2280   -0.8560 C   0  0  0  0  0  0  0  0  0  0  0  0
   23.2743  132.0680   -0.7013 C   0  0  0  0  0  0  0  0  0  0  0  0
   25.6019  131.7112   -1.4112 C   0  0  0  0  0  0  0  0  0  0  0  0
   25.8047  133.1354   -1.7666 C   0  0  0  0  0  0  0  0  0  0  0  0
   25.7646  134.1275   -0.7723 C   0  0  0  0  0  0  0  0  0  0  0  0
   25.9482  135.4708   -1.1113 C   0  0  0  0  0  0  0  0  0  0  0  0
   26.1856  135.8319   -2.4402 C   0  0  0  0  0  0  0  0  0  0  0  0
   26.2425  134.8486   -3.4339 C   0  0  0  0  0  0  0  0  0  0  0  0
   26.5436  135.3029   -5.1011 Cl  0  0  0  0  0  0  0  0  0  0  0  0
   26.0561  133.5027   -3.0981 C   0  0  0  0  0  0  0  0  0  0  0  0
   26.6583  130.8262   -1.6137 C   0  0  0  0  0  0  0  0  0  0  0  0
   26.5422  129.4902   -1.2403 C   0  0  0  0  0  0  0  0  0  0  0  0
   27.5284  128.7287   -1.4401 O   0  0  0  0  0  0  0  0  0  0  0  0
   25.3863  129.0161   -0.6656 N   0  0  0  0  0  0  0  0  0  0  0  0
   25.3050  127.5964   -0.2641 C   0  0  0  0  0  0  0  0  0  0  0  0
  1  2  1  0
  2  3  1  0
  3  4  2  0
  4  5  1  0
  5  6  2  0
  6  7  1  0
  7  8  1  0
  7  9  1  0
  9 10  2  0
 10 11  1  0
 11 12  2  0
 12 13  1  0
 12 14  1  0
 14 15  2  0
  7 16  1  0
 16 17  2  0
 17 18  1  0
 18 19  2  0
 19 20  1  0
 20 21  2  0
 20 22  1  0
 22 23  1  0
 23 24  2  0
 24 25  1  0
 25 26  2  0
 26 27  1  0
 27 28  1  0
 27 29  2  0
 22 30  2  0
 30 31  1  0
 31 32  2  0
 31 33  1  0
 33 34  1  0
  6  2  1  0
 15  9  1  0
 21 16  1  0
 29 23  1  0
 33 19  1  0
M  CHG  1   8   1
M  END
$$$$
1MZC_BNE
     RDKit          3D

 35 38  0  0  0  0  0  0  0  0999 V2000
   26.4384  135.2434   -6.1720 C   0  0  0  0  0  0  0  0  0  0  0  0
   25.5935  135.4871   -7.4315 C   0  0  0  0  0  0  0  0  0  0  0  0
   24.3251  134.5773   -7.5564 C   0  0  0  0  0  0  0  0  0  0  0  0
   23.3394  134.7572   -6.3704 C   0  0  0  0  0  0  0  0  0  0  0  0
   23.2657  135.9556   -5.6215 C   0  0  0  0  0  0  0  0  0  0  0  0
   22.3111  136.1165   -4.6151 C   0  0  0  0  0  0  0  0  0  0  0  0
   21.3861  135.1083   -4.3543 C   0  0  0  0  0  0  0  0  0  0  0  0
   21.4010  133.9282   -5.1113 C   0  0  0  0  0  0  0  0  0  0  0  0
   20.4597  132.9083   -4.9088 O   0  0  0  0  0  0  0  0  0  0  0  0
   19.8858  132.5671   -3.6728 C   0  0  0  0  0  0  0  0  0  0  0  0
   20.5986  132.7169   -2.4707 C   0  0  0  0  0  0  0  0  0  0  0  0
   20.0310  132.3543   -1.2309 C   0  0  0  0  0  0  0  0  0  0  0  0
   20.8437  132.5730    0.0570 C   0  0  0  0  0  0  0  0  0  0  0  0
   20.9515  134.1033    0.2704 C   0  0  0  0  0  0  0  0  0  0  0  0
   20.1908  131.9883    1.2458 N   0  0  0  0  0  4  0  0  0  0  0  0
   22.2362  131.9425   -0.0855 C   0  0  0  0  0  0  0  0  0  0  0  0
   23.4340  132.4951    0.3414 C   0  0  0  0  0  0  0  0  0  0  0  0
   24.4432  131.6339    0.1087 N   0  0  0  0  0  0  0  0  0  0  0  0
   23.8475  130.5589   -0.4426 C   0  0  0  0  0  0  0  0  0  0  0  0
   22.5121  130.7012   -0.5532 N   0  0  0  0  0  0  0  0  0  0  0  0
   21.6169  129.7167   -1.1601 C   0  0  0  0  0  0  0  0  0  0  0  0
   18.7142  131.8464   -1.2256 C   0  0  0  0  0  0  0  0  0  0  0  0
   18.0117  131.6737   -2.4202 C   0  0  0  0  0  0  0  0  0  0  0  0
   18.5941  132.0232   -3.6418 C   0  0  0  0  0  0  0  0  0  0  0  0
   17.8499  131.8358   -4.8618 C   0  0  0  0  0  0  0  0  0  0  0  0
   17.2529  131.6857   -5.8417 N   0  0  0  0  0  0  0  0  0  0  0  0
   22.3454  133.7779   -6.1316 C   0  0  0  0  0  0  0  0  0  0  0  0
   23.4944  134.9741   -8.8172 C   0  0  0  0  0  0  0  0  0  0  0  0
   24.2496  135.2336  -10.1372 C   0  0  0  0  0  0  0  0  0  0  0  0
   25.1594  134.1046  -10.6471 C   0  0  0  0  0  0  0  0  0  0  0  0
   24.7921  132.7188  -10.1247 C   0  0  0  0  0  0  0  0  0  0  0  0
   25.3687  132.5092   -8.7928 N   0  0  0  0  0  0  0  0  0  0  0  0
   26.4836  131.5695   -8.6288 C   0  0  0  0  0  0  0  0  0  0  0  0
   24.8162  133.1192   -7.6071 C   0  0  0  0  0  0  0  0  0  0  0  0
   24.8950  132.4769   -6.5213 O   0  0  0  0  0  0  0  0  0  0  0  0
  1  2  1  0
  2  3  1  0
  3  4  1  0
  4  5  2  0
  5  6  1  0
  6  7  2  0
  7  8  1  0
  8  9  1  0
  9 10  1  0
 10 11  2  0
 11 12  1  0
 12 13  1  0
 13 14  1  0
 13 15  1  0
 13 16  1  0
 16 17  2  0
 17 18  1  0
 18 19  2  0
 19 20  1  0
 20 21  1  0
 12 22  2  0
 22 23  1  0
 23 24  2  0
 24 25  1  0
 25 26  3  0
  8 27  2  0
  3 28  1  0
 28 29  1  0
 29 30  1  0
 30 31  1  0
 31 32  1  0
 32 33  1  0
 32 34  1  0
 34 35  2  0
 34  3  1  0
 27  4  1  0
 24 10  1  0
 20 16  1  0
M  CHG  1  15   1
M  END
$$$$
1LD7_U66
     RDKit          3D

 34 39  0  0  0  0  0  0  0  0999 V2000
   -1.4086   -1.5479   -1.4985 N   0  0  0  0  0  0  0  0  0  0  0  0
   -0.8949   -1.2269   -0.5122 C   0  0  0  0  0  0  0  0  0  0  0  0
   -0.2344   -0.8160    0.7435 C   0  0  0  0  0  0  0  0  0  0  0  0
    1.2815   -0.6994    0.5139 C   0  0  0  0  0  0  0  0  0  0  0  0
    1.6290    0.4805   -0.3636 C   0  0  0  0  0  0  0  0  0  0  0  0
    0.8520    1.5843   -0.4435 C   0  0  0  0  0  0  0  0  0  0  0  0
   -0.4737    1.6850    0.2848 C   0  0  0  0  0  0  0  0  0  0  0  0
   -0.7509    0.5403    1.2757 C   0  0  0  0  0  0  0  0  0  0  0  0
   -2.1276    0.5067    1.6938 O   0  0  0  0  0  0  0  0  0  0  0  0
   -3.2140    0.2120    0.8591 C   0  0  0  0  0  0  0  0  0  0  0  0
   -3.7322   -1.0847    0.8478 C   0  0  0  0  0  0  0  0  0  0  0  0
   -4.7746   -1.4193   -0.0139 C   0  0  0  0  0  0  0  0  0  0  0  0
   -5.3147   -0.4568   -0.8792 C   0  0  0  0  0  0  0  0  0  0  0  0
   -6.3421   -0.8151   -1.7612 C   0  0  0  0  0  0  0  0  0  0  0  0
   -6.8809    0.1284   -2.6305 C   0  0  0  0  0  0  0  0  0  0  0  0
   -6.4044    1.4377   -2.6303 C   0  0  0  0  0  0  0  0  0  0  0  0
   -5.3805    1.8359   -1.7527 C   0  0  0  0  0  0  0  0  0  0  0  0
   -4.8241    0.8781   -0.8589 C   0  0  0  0  0  0  0  0  0  0  0  0
   -3.8019    1.2052    0.0585 C   0  0  0  0  0  0  0  0  0  0  0  0
   -4.9119    3.1993   -1.8053 N   0  0  0  0  0  0  0  0  0  0  0  0
   -5.7712    4.3764   -1.8363 C   0  0  0  0  0  0  0  0  0  0  0  0
   -4.9024    5.5113   -2.4109 C   0  0  0  0  0  0  0  0  0  0  0  0
   -3.4373    5.0824   -2.1947 C   0  0  0  0  0  0  0  0  0  0  0  0
   -2.9177    5.6840   -0.9444 N   0  0  0  0  0  4  0  0  0  0  0  0
   -1.6343    5.1359   -0.4742 C   0  0  0  0  0  0  0  0  0  0  0  0
   -0.4623    5.4234   -1.4249 C   0  0  0  0  0  0  0  0  0  0  0  0
    0.8476    5.1205   -0.7411 C   0  0  0  0  0  0  0  0  0  0  0  0
    1.5286    6.0012    0.0726 C   0  0  0  0  0  0  0  0  0  0  0  0
    2.6096    5.3885    0.5948 N   0  0  0  0  0  0  0  0  0  0  0  0
    2.5614    4.1366    0.0941 C   0  0  0  0  0  0  0  0  0  0  0  0
    1.4976    3.9355   -0.7104 N   0  0  0  0  0  0  0  0  0  0  0  0
    1.1998    2.6886   -1.4186 C   0  0  0  0  0  0  0  0  0  0  0  0
   -3.5867    3.6024   -2.1071 C   0  0  0  0  0  0  0  0  0  0  0  0
   -2.6682    2.7875   -2.3899 O   0  0  0  0  0  0  0  0  0  0  0  0
  1  2  3  0
  2  3  1  0
  3  4  1  0
  4  5  1  0
  5  6  2  0
  6  7  1  0
  7  8  1  0
  8  9  1  0
  9 10  1  0
 10 11  2  0
 11 12  1  0
 12 13  2  0
 13 14  1  0
 14 15  2  0
 15 16  1  0
 16 17  2  0
 17 18  1  0
 18 19  2  0
 17 20  1  0
 20 21  1  0
 21 22  1  0
 22 23  1  0
 23 24  1  0
 24 25  1  0
 25 26  1  0
 26 27  1  0
 27 28  2  0
 28 29  1  0
 29 30  2  0
 30 31  1  0
 31 32  1  0
 23 33  1  0
 33 34  2  0
  8  3  1  0
 19 10  1  0
 33 20  1  0
 32  6  1  0
 18 13  1  0
 31 27  1  0
M  CHG  1  24   1
M  END
$$$$
1S63_778
     RDKit          3D

 29 32  0  0  0  0  0  0  0  0999 V2000
   21.4453  128.1011   -4.9752 N   0  0  0  0  0  0  0  0  0  0  0  0
   21.3715  128.9526   -4.1949 C   0  0  0  0  0  0  0  0  0  0  0  0
   21.2797  130.0117   -3.2244 C   0  0  0  0  0  0  0  0  0  0  0  0
   21.3793  129.7224   -1.8581 C   0  0  0  0  0  0  0  0  0  0  0  0
   21.2891  130.7507   -0.9150 C   0  0  0  0  0  0  0  0  0  0  0  0
   21.0948  132.0785   -1.3294 C   0  0  0  0  0  0  0  0  0  0  0  0
   20.9900  133.1810   -0.3090 C   0  0  0  0  0  0  0  0  0  0  0  0
   19.7878  133.0110    0.5102 N   0  0  0  0  0  0  0  0  0  0  0  0
   19.7267  132.4155    1.7186 C   0  0  0  0  0  0  0  0  0  0  0  0
   18.4693  132.3537    2.2061 N   0  0  0  0  0  0  0  0  0  0  0  0
   17.7097  132.9320    1.2540 C   0  0  0  0  0  0  0  0  0  0  0  0
   18.5136  133.3300    0.2077 C   0  0  0  0  0  0  0  0  0  0  0  0
   18.0510  134.0363   -1.0404 C   0  0  0  0  0  0  0  0  0  0  0  0
   18.2536  135.5059   -0.9520 N   0  0  0  0  0  4  0  0  0  0  0  0
   18.3041  136.1383   -2.2880 C   0  0  0  0  0  0  0  0  0  0  0  0
   16.9872  135.9736   -3.0631 C   0  0  0  0  0  0  0  0  0  0  0  0
   15.8147  136.2850   -2.2355 N   0  0  0  0  0  0  0  0  0  0  0  0
   14.5351  136.3878   -2.8834 C   0  0  0  0  0  0  0  0  0  0  0  0
   14.2949  137.4123   -3.8125 C   0  0  0  0  0  0  0  0  0  0  0  0
   13.0552  137.5062   -4.4521 C   0  0  0  0  0  0  0  0  0  0  0  0
   12.0496  136.5767   -4.1722 C   0  0  0  0  0  0  0  0  0  0  0  0
   12.2826  135.5491   -3.2519 C   0  0  0  0  0  0  0  0  0  0  0  0
   11.0229  134.3786   -2.9061 Cl  0  0  0  0  0  0  0  0  0  0  0  0
   13.5224  135.4532   -2.6101 C   0  0  0  0  0  0  0  0  0  0  0  0
   15.8997  136.2661   -0.7966 C   0  0  0  0  0  0  0  0  0  0  0  0
   14.8634  136.4175   -0.0940 O   0  0  0  0  0  0  0  0  0  0  0  0
   17.2335  136.1683   -0.1100 C   0  0  0  0  0  0  0  0  0  0  0  0
   21.0032  132.3635   -2.7022 C   0  0  0  0  0  0  0  0  0  0  0  0
   21.0928  131.3343   -3.6443 C   0  0  0  0  0  0  0  0  0  0  0  0
  1  2  3  0
  2  3  1  0
  3  4  2  0
  4  5  1  0
  5  6  2  0
  6  7  1  0
  7  8  1  0
  8  9  1  0
  9 10  2  0
 10 11  1  0
 11 12  2  0
 12 13  1  0
 13 14  1  0
 14 15  1  0
 15 16  1  0
 16 17  1  0
 17 18  1  0
 18 19  2  0
 19 20  1  0
 20 21  2  0
 21 22  1  0
 22 23  1  0
 22 24  2  0
 17 25  1  0
 25 26  2  0
 25 27  1  0
  6 28  1  0
 28 29  2  0
 29  3  1  0
 12  8  1  0
 27 14  1  0
 24 18  1  0
M  CHG  1  14   1
M  END
$$$$
3E37_ED5
     RDKit          3D

 43 46  0  0  0  0  0  0  0  0999 V2000
   19.1687  128.1799   -1.1942 C   0  0  0  0  0  0  0  0  0  0  0  0
   20.1991  128.5499   -2.2263 C   0  0  0  0  0  0  0  0  0  0  0  0
   19.7610  128.8172   -3.5370 C   0  0  0  0  0  0  0  0  0  0  0  0
   20.6707  129.1470   -4.5412 C   0  0  0  0  0  0  0  0  0  0  0  0
   22.0325  129.2013   -4.2578 C   0  0  0  0  0  0  0  0  0  0  0  0
   22.4881  128.9337   -2.9673 C   0  0  0  0  0  0  0  0  0  0  0  0
   21.5886  128.6257   -1.9327 C   0  0  0  0  0  0  0  0  0  0  0  0
   22.2924  128.3408   -0.3221 S   0  0  0  0  0  6  0  0  0  0  0  0
   21.2415  128.0756    0.7191 O   0  0  0  0  0  0  0  0  0  0  0  0
   23.1546  127.1155   -0.4334 O   0  0  0  0  0  0  0  0  0  0  0  0
   23.2873  129.7043    0.1721 N   0  0  0  0  0  0  0  0  0  0  0  0
   22.6966  131.0087   -0.1980 C   0  0  0  0  0  0  0  0  0  0  0  0
   21.4077  131.3587    0.5696 C   0  0  0  0  0  0  0  0  0  0  0  0
   20.7667  132.5337   -0.0318 N   0  0  0  0  0  0  0  0  0  0  0  0
   20.7318  133.8242    0.6651 C   0  0  0  0  0  0  0  0  0  0  0  0
   21.5364  134.8427   -0.0882 C   0  0  0  0  0  0  0  0  0  0  0  0
   22.9110  134.9322   -0.1021 C   0  0  0  0  0  0  0  0  0  0  0  0
   23.2848  135.9226   -0.9381 N   0  0  0  0  0  0  0  0  0  0  0  0
   22.1234  136.4117   -1.4236 C   0  0  0  0  0  0  0  0  0  0  0  0
   21.0457  135.7674   -0.9345 N   0  0  0  0  0  0  0  0  0  0  0  0
   19.6469  136.0625   -1.2312 C   0  0  0  0  0  0  0  0  0  0  0  0
   20.0268  132.3723   -1.2513 C   0  0  0  0  0  0  0  0  0  0  0  0
   18.7289  131.8455   -1.2194 C   0  0  0  0  0  0  0  0  0  0  0  0
   18.0104  131.6746   -2.4062 C   0  0  0  0  0  0  0  0  0  0  0  0
   18.5868  132.0297   -3.6327 C   0  0  0  0  0  0  0  0  0  0  0  0
   17.8540  131.8382   -4.8564 C   0  0  0  0  0  0  0  0  0  0  0  0
   17.2654  131.6829   -5.8405 N   0  0  0  0  0  0  0  0  0  0  0  0
   19.8845  132.5556   -3.6670 C   0  0  0  0  0  0  0  0  0  0  0  0
   20.6021  132.7263   -2.4800 C   0  0  0  0  0  0  0  0  0  0  0  0
   23.6751  129.6393    1.5983 C   0  0  0  0  0  0  0  0  0  0  0  0
   24.9331  128.7676    1.8016 C   0  0  0  0  0  0  0  0  0  0  0  0
   25.2061  128.5690    3.3160 C   0  0  0  0  0  0  0  0  0  0  0  0
   26.6976  128.4230    3.6272 C   0  0  0  0  0  0  0  0  0  0  0  0
   27.4232  129.6114    3.1539 N   0  0  0  0  0  0  0  0  0  0  0  0
   28.5514  130.1241    3.8852 C   0  0  0  0  0  0  0  0  0  0  0  0
   29.0071  129.4830    4.8709 O   0  0  0  0  0  0  0  0  0  0  0  0
   29.1365  131.3380    3.4886 O   0  0  0  0  0  0  0  0  0  0  0  0
   30.2610  131.9836    4.1039 C   0  0  0  0  0  0  0  0  0  0  0  0
   30.5264  133.2768    3.3180 C   0  0  0  0  0  0  0  0  0  0  0  0
   29.9445  132.3469    5.5672 C   0  0  0  0  0  0  0  0  0  0  0  0
   31.5117  131.0876    4.0241 C   0  0  0  0  0  0  0  0  0  0  0  0
   27.0103  130.2753    1.9083 C   0  0  0  0  0  0  0  0  0  0  0  0
   26.1573  129.3427    1.0401 C   0  0  0  0  0  0  0  0  0  0  0  0
  1  2  1  0
  2  3  2  0
  3  4  1  0
  4  5  2  0
  5  6  1  0
  6  7  2  0
  7  8  1  0
  8  9  2  0
  8 10  2  0
  8 11  1  0
 11 12  1  0
 12 13  1  0
 13 14  1  0
 14 15  1  0
 15 16  1  0
 16 17  2  0
 17 18  1  0
 18 19  2  0
 19 20  1  0
 20 21  1  0
 14 22  1  0
 22 23  2  0
 23 24  1  0
 24 25  2  0
 25 26  1  0
 26 27  3  0
 25 28  1  0
 28 29  2  0
 11 30  1  0
 30 31  1  0
 31 32  1  0
 32 33  1  0
 33 34  1  0
 34 35  1  0
 35 36  2  0
 35 37  1  0
 37 38  1  0
 38 39  1  0
 38 40  1  0
 38 41  1  0
 34 42  1  0
 42 43  1  0
  7  2  1  0
 20 16  1  0
 29 22  1  0
 43 31  1  0
M  END
$$$$
2IEJ_S48
     RDKit          3D

 38 42  0  0  0  0  0  0  0  0999 V2000
   16.6025  132.7174   -0.0482 C   0  0  0  0  0  0  0  0  0  0  0  0
   16.3679  134.0469    0.3996 O   0  0  0  0  0  0  0  0  0  0  0  0
   15.5378  134.3410    1.4843 C   0  0  0  0  0  0  0  0  0  0  0  0
   15.0207  133.4144    2.1650 O   0  0  0  0  0  0  0  0  0  0  0  0
   15.2635  135.7688    1.8335 C   0  0  0  0  0  0  0  0  0  0  0  0
   16.3259  136.2940    2.7307 N   0  0  0  0  0  0  0  0  0  0  0  0
   16.9142  137.5560    2.1838 C   0  0  0  0  0  0  0  0  0  0  0  0
   17.7100  138.4247    3.1911 C   0  0  0  0  0  0  0  0  0  0  0  0
   19.0047  137.7844    3.6261 C   0  0  0  0  0  0  0  0  0  0  0  0
   19.6000  138.1915    4.8297 C   0  0  0  0  0  0  0  0  0  0  0  0
   20.8384  137.6678    5.2331 C   0  0  0  0  0  0  0  0  0  0  0  0
   21.4547  138.0889    6.5170 C   0  0  0  0  0  0  0  0  0  0  0  0
   22.0920  137.1468    7.3468 C   0  0  0  0  0  0  0  0  0  0  0  0
   22.6702  137.5448    8.5562 C   0  0  0  0  0  0  0  0  0  0  0  0
   22.6204  138.8839    8.9498 C   0  0  0  0  0  0  0  0  0  0  0  0
   21.9920  139.8281    8.1350 C   0  0  0  0  0  0  0  0  0  0  0  0
   21.4112  139.4357    6.9251 C   0  0  0  0  0  0  0  0  0  0  0  0
   21.4886  136.7451    4.4000 C   0  0  0  0  0  0  0  0  0  0  0  0
   20.9141  136.3504    3.1908 C   0  0  0  0  0  0  0  0  0  0  0  0
   19.6644  136.8609    2.7867 C   0  0  0  0  0  0  0  0  0  0  0  0
   19.0248  136.4273    1.5575 N   0  0  0  0  0  0  0  0  0  0  0  0
   19.5077  135.2619    0.7946 C   0  0  0  0  0  0  0  0  0  0  0  0
   19.4279  133.9803    1.5884 C   0  0  0  0  0  0  0  0  0  0  0  0
   18.7405  133.7560    2.7670 C   0  0  0  0  0  0  0  0  0  0  0  0
   18.8957  132.4689    3.1393 N   0  0  0  0  0  0  0  0  0  0  0  0
   19.6686  131.9290    2.1737 C   0  0  0  0  0  0  0  0  0  0  0  0
   19.9950  132.8184    1.2164 N   0  0  0  0  0  0  0  0  0  0  0  0
   20.8235  132.5694    0.0412 C   0  0  0  0  0  0  0  0  0  0  0  0
   17.8872  137.2065    1.0394 C   0  0  0  0  0  0  0  0  0  0  0  0
   15.6987  136.4230    4.3689 S   0  0  0  0  0  6  0  0  0  0  0  0
   16.8212  136.6094    5.3505 O   0  0  0  0  0  0  0  0  0  0  0  0
   14.7556  137.5901    4.4698 O   0  0  0  0  0  0  0  0  0  0  0  0
   14.8554  134.9569    4.8391 C   0  0  0  0  0  0  0  0  0  0  0  0
   13.4912  134.7766    4.8481 C   0  0  0  0  0  0  0  0  0  0  0  0
   13.2580  133.5211    5.2608 N   0  0  0  0  0  0  0  0  0  0  0  0
   11.9660  132.8518    5.3317 C   0  0  0  0  0  0  0  0  0  0  0  0
   14.4682  132.9661    5.4703 C   0  0  0  0  0  0  0  0  0  0  0  0
   15.4801  133.8263    5.2273 N   0  0  0  0  0  0  0  0  0  0  0  0
  1  2  1  0
  2  3  1  0
  3  4  2  0
  3  5  1  0
  5  6  1  0
  6  7  1  0
  7  8  1  0
  8  9  1  0
  9 10  2  0
 10 11  1  0
 11 12  1  0
 12 13  2  0
 13 14  1  0
 14 15  2  0
 15 16  1  0
 16 17  2  0
 11 18  2  0
 18 19  1  0
 19 20  2  0
 20 21  1  0
 21 22  1  0
 22 23  1  0
 23 24  2  0
 24 25  1  0
 25 26  2  0
 26 27  1  0
 27 28  1  0
 21 29  1  0
  6 30  1  0
 30 31  2  0
 30 32  2  0
 30 33  1  0
 33 34  2  0
 34 35  1  0
 35 36  1  0
 35 37  1  0
 37 38  2  0
 29  7  1  0
 38 33  1  0
 20  9  1  0
 27 23  1  0
 17 12  1  0
M  END
$$$$
