1JCQ_739
     RDKit          3D

 34 34  0  0  0  0  0  0  0  0999 V2000
   16.0352  140.9717   -0.1550 C   0  0  0  0  0  0  0  0  0  0  0  0
   16.4636  140.2273   -1.4223 C   0  0  0  0  0  0  0  0  0  0  0  0
   15.3843  140.2096   -2.5417 C   0  0  0  0  0  0  0  0  0  0  0  0
   14.9442  141.6502   -2.8843 C   0  0  0  0  0  0  0  0  0  0  0  0
   15.9099  139.4668   -3.8257 C   0  0  0  0  0  0  0  0  0  0  0  0
   16.5062  138.0624   -3.5364 C   0  0  0  0  0  0  0  0  0  0  0  0
   15.6225  137.2929   -2.7445 O   0  0  0  0  0  0  0  0  0  0  0  0
   16.1900  136.0318   -2.4336 C   0  0  0  0  0  0  0  0  0  0  0  0
   15.4852  135.4554   -1.1975 C   0  0  0  0  0  0  0  0  0  0  0  0
   15.6075  136.3838   -0.0169 C   0  0  0  0  0  0  0  0  0  0  0  0
   14.5498  137.2444    0.3228 C   0  0  0  0  0  0  0  0  0  0  0  0
   14.6714  138.1132    1.4111 C   0  0  0  0  0  0  0  0  0  0  0  0
   15.8548  138.1450    2.1536 C   0  0  0  0  0  0  0  0  0  0  0  0
   16.9182  137.3059    1.8103 C   0  0  0  0  0  0  0  0  0  0  0  0
   16.7970  136.4275    0.7292 C   0  0  0  0  0  0  0  0  0  0  0  0
   16.0258  135.0773   -3.5894 C   0  0  0  0  0  0  0  0  0  0  0  0
   17.0168  134.3968   -3.9696 O   0  0  0  0  0  0  0  0  0  0  0  0
   14.7500  134.9264   -4.2330 N   0  0  0  0  0  0  0  0  0  0  0  0
   14.5037  133.9547   -5.3031 C   0  0  0  0  0  0  0  0  0  0  0  0
   14.1632  134.6736   -6.6189 C   0  0  0  0  0  0  0  0  0  0  0  0
   15.3153  135.5663   -7.0946 C   0  0  0  0  0  0  0  0  0  0  0  0
   14.9991  136.2174   -8.7292 S   0  0  0  0  0  6  0  0  0  0  0  0
   15.3004  134.9589   -9.9507 C   0  0  0  0  0  0  0  0  0  0  0  0
   15.9202  137.3773   -8.9818 O   0  0  0  0  0  0  0  0  0  0  0  0
   13.5749  136.6842   -8.8408 O   0  0  0  0  0  0  0  0  0  0  0  0
   13.3740  133.0507   -4.9019 C   0  0  0  0  0  0  0  0  0  0  0  0
   13.5374  131.8022   -4.8838 O   0  0  0  0  0  0  0  0  0  0  0  0
   12.1372  133.5846   -4.5589 O   0  0  0  0  0  1  0  0  0  0  0  0
   14.9270  139.4178   -4.9432 N   0  0  0  0  0  4  0  0  0  0  0  0
   13.5976  138.8813   -4.5836 C   0  0  0  0  0  0  0  0  0  0  0  0
   12.7507  138.5117   -5.8291 C   0  0  0  0  0  0  0  0  0  0  0  0
   11.5321  137.8085   -5.4049 N   0  0  0  0  0  4  0  0  0  0  0  0
   12.3762  139.7523   -6.6762 C   0  0  0  0  0  0  0  0  0  0  0  0
   13.6325  140.1358   -7.8847 S   0  0  0  0  0  1  0  0  0  0  0  0
  1  2  1  0
  2  3  1  0
  3  4  1  0
  3  5  1  0
  5  6  1  0
  6  7  1  0
  7  8  1  0
  8  9  1  0
  9 10  1  0
 10 11  2  0
 11 12  1  0
 12 13  2  0
 13 14  1  0
 14 15  2  0
  8 16  1  0
 16 17  2  0
 16 18  1  0
 18 19  1  0
 19 20  1  0
 20 21  1  0
 21 22  1  0
 22 23  1  0
 22 24  2  0
 22 25  2  0
 19 26  1  0
 26 27  2  0
 26 28  1  0
  5 29  1  0
 29 30  1  0
 30 31  1  0
 31 32  1  0
 31 33  1  0
 33 34  1  0
 15 10  1  0
M  CHG  4  28  -1  29   1  32   1  34  -1
M  END
$$$$
1SA4_JAN
     RDKit          3D

 34 38  0  0  0  0  0  0  0  0999 V2000
   -0.1872   -2.9422    2.8220 C   0  0  0  0  0  0  0  0  0  0  0  0
   -1.0625   -4.0978    2.6362 N   0  0  0  0  0  0  0  0  0  0  0  0
   -1.2732   -5.0612    3.5545 C   0  0  0  0  0  0  0  0  0  0  0  0
   -2.0934   -6.0336    3.1114 N   0  0  0  0  0  0  0  0  0  0  0  0
   -2.4179   -5.6555    1.8599 C   0  0  0  0  0  0  0  0  0  0  0  0
   -1.8051   -4.4489    1.5579 C   0  0  0  0  0  0  0  0  0  0  0  0
   -1.8704   -3.7160    0.2054 C   0  0  0  0  0  0  0  0  0  0  0  0
   -3.0513   -4.1990   -0.5515 N   0  0  0  0  0  4  0  0  0  0  0  0
   -0.6145   -4.0090   -0.6542 C   0  0  0  0  0  0  0  0  0  0  0  0
    0.4845   -4.7675   -0.1831 C   0  0  0  0  0  0  0  0  0  0  0  0
    1.6134   -4.9666   -0.9829 C   0  0  0  0  0  0  0  0  0  0  0  0
    1.6704   -4.4267   -2.2682 C   0  0  0  0  0  0  0  0  0  0  0  0
    3.0981   -4.6630   -3.2591 Cl  0  0  0  0  0  0  0  0  0  0  0  0
    0.5900   -3.6961   -2.7622 C   0  0  0  0  0  0  0  0  0  0  0  0
   -0.5427   -3.4954   -1.9702 C   0  0  0  0  0  0  0  0  0  0  0  0
   -2.0508   -2.2052    0.4828 C   0  0  0  0  0  0  0  0  0  0  0  0
   -3.2264   -1.7492    1.1023 C   0  0  0  0  0  0  0  0  0  0  0  0
   -3.4220   -0.3970    1.3788 C   0  0  0  0  0  0  0  0  0  0  0  0
   -2.4342    0.5653    1.0691 C   0  0  0  0  0  0  0  0  0  0  0  0
   -1.2178    0.1136    0.4914 C   0  0  0  0  0  0  0  0  0  0  0  0
   -1.0480   -1.2553    0.2007 C   0  0  0  0  0  0  0  0  0  0  0  0
   -0.2028    1.0516    0.2031 C   0  0  0  0  0  0  0  0  0  0  0  0
    1.1095    0.6545   -0.3546 C   0  0  0  0  0  0  0  0  0  0  0  0
    2.0086   -0.0986    0.4184 C   0  0  0  0  0  0  0  0  0  0  0  0
    3.2277   -0.5120   -0.1261 C   0  0  0  0  0  0  0  0  0  0  0  0
    3.5604   -0.1693   -1.4396 C   0  0  0  0  0  0  0  0  0  0  0  0
    2.6757    0.5927   -2.2105 C   0  0  0  0  0  0  0  0  0  0  0  0
    3.0929    1.0182   -3.8601 Cl  0  0  0  0  0  0  0  0  0  0  0  0
    1.4538    1.0076   -1.6683 C   0  0  0  0  0  0  0  0  0  0  0  0
   -0.4338    2.4014    0.4525 C   0  0  0  0  0  0  0  0  0  0  0  0
   -1.6399    2.8197    1.0088 C   0  0  0  0  0  0  0  0  0  0  0  0
   -1.8001    4.0530    1.2228 O   0  0  0  0  0  0  0  0  0  0  0  0
   -2.6264    1.9127    1.3199 N   0  0  0  0  0  0  0  0  0  0  0  0
   -3.8902    2.3908    1.9179 C   0  0  0  0  0  0  0  0  0  0  0  0
  1  2  1  0
  2  3  1  0
  3  4  2  0
  4  5  1  0
  5  6  2  0
  6  7  1  0
  7  8  1  0
  7  9  1  0
  9 10  2  0
 10 11  1  0
 11 12  2  0
 12 13  1  0
 12 14  1  0
 14 15  2  0
  7 16  1  0
 16 17  2  0
 17 18  1  0
 18 19  2  0
 19 20  1  0
 20 21  2  0
 20 22  1  0
 22 23  1  0
 23 24  2  0
 24 25  1  0
 25 26  2  0
 26 27  1  0
 27 28  1  0
 27 29  2  0
 22 30  2  0
 30 31  1  0
 31 32  2  0
 31 33  1  0
 33 34  1  0
  6  2  1  0
 15  9  1  0
 21 16  1  0
 29 23  1  0
 33 19  1  0
M  CHG  1   8   1
M  END
$$$$
1MZC_BNE
     RDKit          3D

 35 38  0  0  0  0  0  0  0  0999 V2000
    2.8988    3.0503    0.1960 C   0  0  0  0  0  0  0  0  0  0  0  0
    1.5773    2.4259   -0.2787 C   0  0  0  0  0  0  0  0  0  0  0  0
    1.3156    0.9378    0.1435 C   0  0  0  0  0  0  0  0  0  0  0  0
   -0.1050    0.6275   -0.3866 C   0  0  0  0  0  0  0  0  0  0  0  0
   -0.2856    0.2083   -1.7265 C   0  0  0  0  0  0  0  0  0  0  0  0
   -1.5605   -0.0163   -2.2468 C   0  0  0  0  0  0  0  0  0  0  0  0
   -2.6884    0.2185   -1.4653 C   0  0  0  0  0  0  0  0  0  0  0  0
   -2.5483    0.7145   -0.1604 C   0  0  0  0  0  0  0  0  0  0  0  0
   -3.6592    0.9913    0.6510 O   0  0  0  0  0  0  0  0  0  0  0  0
   -4.9612    1.2042    0.1765 C   0  0  0  0  0  0  0  0  0  0  0  0
   -5.9985    0.4273    0.7061 C   0  0  0  0  0  0  0  0  0  0  0  0
   -7.3321    0.5912    0.2671 C   0  0  0  0  0  0  0  0  0  0  0  0
   -8.5048   -0.2599    0.8038 C   0  0  0  0  0  0  0  0  0  0  0  0
   -9.0477   -1.0793   -0.3929 C   0  0  0  0  0  0  0  0  0  0  0  0
   -8.0673   -1.1939    1.8595 N   0  0  0  0  0  4  0  0  0  0  0  0
   -9.5744    0.6692    1.4021 C   0  0  0  0  0  0  0  0  0  0  0  0
   -9.3119    1.8924    2.0016 C   0  0  0  0  0  0  0  0  0  0  0  0
  -10.4382    2.3926    2.5430 N   0  0  0  0  0  0  0  0  0  0  0  0
  -11.3738    1.4582    2.2888 C   0  0  0  0  0  0  0  0  0  0  0  0
  -10.8842    0.3936    1.6217 N   0  0  0  0  0  0  0  0  0  0  0  0
  -11.6640   -0.7920    1.2719 C   0  0  0  0  0  0  0  0  0  0  0  0
   -7.5888    1.5686   -0.7179 C   0  0  0  0  0  0  0  0  0  0  0  0
   -6.5623    2.3637   -1.2288 C   0  0  0  0  0  0  0  0  0  0  0  0
   -5.2491    2.1940   -0.7833 C   0  0  0  0  0  0  0  0  0  0  0  0
   -4.2215    3.0750   -1.2807 C   0  0  0  0  0  0  0  0  0  0  0  0
   -3.3963    3.7815   -1.6797 N   0  0  0  0  0  0  0  0  0  0  0  0
   -1.2680    0.9232    0.3649 C   0  0  0  0  0  0  0  0  0  0  0  0
    1.4580    0.8143    1.7062 C   0  0  0  0  0  0  0  0  0  0  0  0
    1.4850   -0.5977    2.3413 C   0  0  0  0  0  0  0  0  0  0  0  0
    0.6432   -1.6681    1.6401 C   0  0  0  0  0  0  0  0  0  0  0  0
    1.2170   -2.1539    0.2918 C   0  0  0  0  0  0  0  0  0  0  0  0
    2.4091   -1.4054   -0.1450 N   0  0  0  0  0  0  0  0  0  0  0  0
    3.6892   -2.1012   -0.3113 C   0  0  0  0  0  0  0  0  0  0  0  0
    2.3371   -0.0079   -0.5027 C   0  0  0  0  0  0  0  0  0  0  0  0
    3.1202    0.4289   -1.3919 O   0  0  0  0  0  0  0  0  0  0  0  0
  1  2  1  0
  2  3  1  0
  3  4  1  0
  4  5  2  0
  5  6  1  0
  6  7  2  0
  7  8  1  0
  8  9  1  0
  9 10  1  0
 10 11  2  0
 11 12  1  0
 12 13  1  0
 13 14  1  0
 13 15  1  0
 13 16  1  0
 16 17  2  0
 17 18  1  0
 18 19  2  0
 19 20  1  0
 20 21  1  0
 12 22  2  0
 22 23  1  0
 23 24  2  0
 24 25  1  0
 25 26  3  0
  8 27  2  0
  3 28  1  0
 28 29  1  0
 29 30  1  0
 30 31  1  0
 31 32  1  0
 32 33  1  0
 32 34  1  0
 34 35  2  0
 34  3  1  0
 27  4  1  0
 24 10  1  0
 20 16  1  0
M  CHG  1  15   1
M  END
$$$$
1LD7_U66
     RDKit          3D

 34 39  0  0  0  0  0  0  0  0999 V2000
   -2.8609   -4.3892   -5.4982 N   0  0  0  0  0  0  0  0  0  0  0  0
   -1.9817   -3.6367   -5.5005 C   0  0  0  0  0  0  0  0  0  0  0  0
   -0.8602   -2.6765   -5.5031 C   0  0  0  0  0  0  0  0  0  0  0  0
    0.2524   -3.1487   -6.4578 C   0  0  0  0  0  0  0  0  0  0  0  0
    1.2425   -4.1052   -5.8337 C   0  0  0  0  0  0  0  0  0  0  0  0
    1.3925   -4.2476   -4.4978 C   0  0  0  0  0  0  0  0  0  0  0  0
    0.3221   -3.7476   -3.5519 C   0  0  0  0  0  0  0  0  0  0  0  0
   -0.3058   -2.4431   -4.0828 C   0  0  0  0  0  0  0  0  0  0  0  0
   -1.3658   -1.9757   -3.2415 O   0  0  0  0  0  0  0  0  0  0  0  0
   -1.2033   -1.1215   -2.1399 C   0  0  0  0  0  0  0  0  0  0  0  0
   -2.2713   -0.2958   -1.7710 C   0  0  0  0  0  0  0  0  0  0  0  0
   -2.1388    0.6103   -0.7143 C   0  0  0  0  0  0  0  0  0  0  0  0
   -0.9532    0.6524    0.0343 C   0  0  0  0  0  0  0  0  0  0  0  0
   -0.8081    1.5559    1.0972 C   0  0  0  0  0  0  0  0  0  0  0  0
    0.3611    1.5568    1.8620 C   0  0  0  0  0  0  0  0  0  0  0  0
    1.3737    0.6299    1.6022 C   0  0  0  0  0  0  0  0  0  0  0  0
    1.2432   -0.2876    0.5494 C   0  0  0  0  0  0  0  0  0  0  0  0
    0.1005   -0.2398   -0.2754 C   0  0  0  0  0  0  0  0  0  0  0  0
   -0.0110   -1.0699   -1.4012 C   0  0  0  0  0  0  0  0  0  0  0  0
    2.1685   -1.3806    0.4424 N   0  0  0  0  0  0  0  0  0  0  0  0
    1.8474   -2.7082    0.9483 C   0  0  0  0  0  0  0  0  0  0  0  0
    3.1596   -3.5117    0.9218 C   0  0  0  0  0  0  0  0  0  0  0  0
    4.2912   -2.4687    0.7710 C   0  0  0  0  0  0  0  0  0  0  0  0
    5.4300   -2.8477   -0.1033 N   0  0  0  0  0  4  0  0  0  0  0  0
    5.1555   -3.5402   -1.3804 C   0  0  0  0  0  0  0  0  0  0  0  0
    4.2556   -2.7484   -2.3469 C   0  0  0  0  0  0  0  0  0  0  0  0
    4.4721   -3.2366   -3.7545 C   0  0  0  0  0  0  0  0  0  0  0  0
    5.5320   -2.8612   -4.5533 C   0  0  0  0  0  0  0  0  0  0  0  0
    5.5605   -3.6333   -5.6566 N   0  0  0  0  0  0  0  0  0  0  0  0
    4.5167   -4.4739   -5.5043 C   0  0  0  0  0  0  0  0  0  0  0  0
    3.8381   -4.2658   -4.3559 N   0  0  0  0  0  0  0  0  0  0  0  0
    2.6117   -4.9609   -3.9488 C   0  0  0  0  0  0  0  0  0  0  0  0
    3.5724   -1.2441    0.3406 C   0  0  0  0  0  0  0  0  0  0  0  0
    4.1367   -0.1639    0.0193 O   0  0  0  0  0  0  0  0  0  0  0  0
  1  2  3  0
  2  3  1  0
  3  4  1  0
  4  5  1  0
  5  6  2  0
  6  7  1  0
  7  8  1  0
  8  9  1  0
  9 10  1  0
 10 11  2  0
 11 12  1  0
 12 13  2  0
 13 14  1  0
 14 15  2  0
 15 16  1  0
 16 17  2  0
 17 18  1  0
 18 19  2  0
 17 20  1  0
 20 21  1  0
 21 22  1  0
 22 23  1  0
 23 24  1  0
 24 25  1  0
 25 26  1  0
 26 27  1  0
 27 28  2  0
 28 29  1  0
 29 30  2  0
 30 31  1  0
 31 32  1  0
 23 33  1  0
 33 34  2  0
  8  3  1  0
 19 10  1  0
 33 20  1  0
 32  6  1  0
 18 13  1  0
 31 27  1  0
M  CHG  1  24   1
M  END
$$$$
1S63_778
     RDKit          3D

 29 32  0  0  0  0  0  0  0  0999 V2000
   17.0422  142.2029    4.1743 N   0  0  0  0  0  0  0  0  0  0  0  0
   17.6963  141.2545    4.0667 C   0  0  0  0  0  0  0  0  0  0  0  0
   18.5096  140.0746    3.9325 C   0  0  0  0  0  0  0  0  0  0  0  0
   19.4797  140.0018    2.9255 C   0  0  0  0  0  0  0  0  0  0  0  0
   20.2597  138.8499    2.7848 C   0  0  0  0  0  0  0  0  0  0  0  0
   20.0715  137.7565    3.6467 C   0  0  0  0  0  0  0  0  0  0  0  0
   20.8966  136.5068    3.4873 C   0  0  0  0  0  0  0  0  0  0  0  0
   20.0368  135.3330    3.3146 N   0  0  0  0  0  0  0  0  0  0  0  0
   19.8148  134.3723    4.2344 C   0  0  0  0  0  0  0  0  0  0  0  0
   18.9844  133.4061    3.7890 N   0  0  0  0  0  0  0  0  0  0  0  0
   18.6709  133.7834    2.5333 C   0  0  0  0  0  0  0  0  0  0  0  0
   19.3072  134.9709    2.2392 C   0  0  0  0  0  0  0  0  0  0  0  0
   19.2196  135.7158    0.9280 C   0  0  0  0  0  0  0  0  0  0  0  0
   17.8255  136.0893    0.5875 N   0  0  0  0  0  4  0  0  0  0  0  0
   17.3026  137.1114    1.5221 C   0  0  0  0  0  0  0  0  0  0  0  0
   15.8163  137.3772    1.2614 C   0  0  0  0  0  0  0  0  0  0  0  0
   15.5769  137.7060   -0.1486 N   0  0  0  0  0  0  0  0  0  0  0  0
   14.4323  138.5033   -0.5162 C   0  0  0  0  0  0  0  0  0  0  0  0
   13.1911  138.3121    0.1178 C   0  0  0  0  0  0  0  0  0  0  0  0
   12.0891  139.0966   -0.2348 C   0  0  0  0  0  0  0  0  0  0  0  0
   12.2148  140.0814   -1.2175 C   0  0  0  0  0  0  0  0  0  0  0  0
   13.4452  140.2857   -1.8495 C   0  0  0  0  0  0  0  0  0  0  0  0
   13.6049  141.5290   -3.0765 Cl  0  0  0  0  0  0  0  0  0  0  0  0
   14.5501  139.5018   -1.4995 C   0  0  0  0  0  0  0  0  0  0  0  0
   16.4060  137.0991   -1.1576 C   0  0  0  0  0  0  0  0  0  0  0  0
   16.0139  137.0317   -2.3544 O   0  0  0  0  0  0  0  0  0  0  0  0
   17.7768  136.5962   -0.8014 C   0  0  0  0  0  0  0  0  0  0  0  0
   19.1150  137.8463    4.6717 C   0  0  0  0  0  0  0  0  0  0  0  0
   18.3326  138.9969    4.8084 C   0  0  0  0  0  0  0  0  0  0  0  0
  1  2  3  0
  2  3  1  0
  3  4  2  0
  4  5  1  0
  5  6  2  0
  6  7  1  0
  7  8  1  0
  8  9  1  0
  9 10  2  0
 10 11  1  0
 11 12  2  0
 12 13  1  0
 13 14  1  0
 14 15  1  0
 15 16  1  0
 16 17  1  0
 17 18  1  0
 18 19  2  0
 19 20  1  0
 20 21  2  0
 21 22  1  0
 22 23  1  0
 22 24  2  0
 17 25  1  0
 25 26  2  0
 25 27  1  0
  6 28  1  0
 28 29  2  0
 29  3  1  0
 12  8  1  0
 27 14  1  0
 24 18  1  0
M  CHG  1  14   1
M  END
$$$$
3E37_ED5
     RDKit          3D

 43 46  0  0  0  0  0  0  0  0999 V2000
    3.6859   -0.2452   -1.9356 C   0  0  0  0  0  0  0  0  0  0  0  0
    4.2234   -0.3683   -0.5329 C   0  0  0  0  0  0  0  0  0  0  0  0
    4.4370   -1.6599   -0.0161 C   0  0  0  0  0  0  0  0  0  0  0  0
    4.9577   -1.8393    1.2652 C   0  0  0  0  0  0  0  0  0  0  0  0
    5.2819   -0.7343    2.0475 C   0  0  0  0  0  0  0  0  0  0  0  0
    5.0815    0.5546    1.5540 C   0  0  0  0  0  0  0  0  0  0  0  0
    4.5520    0.7616    0.2693 C   0  0  0  0  0  0  0  0  0  0  0  0
    4.2607    2.4490   -0.2279 S   0  0  0  0  0  6  0  0  0  0  0  0
    5.4638    3.2625    0.1645 O   0  0  0  0  0  0  0  0  0  0  0  0
    4.1152    2.5607   -1.7185 O   0  0  0  0  0  0  0  0  0  0  0  0
    2.8058    3.0953    0.5205 N   0  0  0  0  0  0  0  0  0  0  0  0
    1.8280    2.0136    0.7498 C   0  0  0  0  0  0  0  0  0  0  0  0
    0.3917    2.5377    0.6338 C   0  0  0  0  0  0  0  0  0  0  0  0
   -0.5809    1.4801    0.9465 N   0  0  0  0  0  0  0  0  0  0  0  0
   -1.7762    1.7767    1.7438 C   0  0  0  0  0  0  0  0  0  0  0  0
   -1.7293    1.0561    3.0598 C   0  0  0  0  0  0  0  0  0  0  0  0
   -2.3454   -0.1439    3.3416 C   0  0  0  0  0  0  0  0  0  0  0  0
   -2.0141   -0.5337    4.5894 N   0  0  0  0  0  0  0  0  0  0  0  0
   -1.1983    0.4423    5.0424 C   0  0  0  0  0  0  0  0  0  0  0  0
   -1.0139    1.4253    4.1393 N   0  0  0  0  0  0  0  0  0  0  0  0
   -0.1091    2.5617    4.2793 C   0  0  0  0  0  0  0  0  0  0  0  0
   -0.4787    0.2091    0.2843 C   0  0  0  0  0  0  0  0  0  0  0  0
    0.0332   -0.9005    0.9721 C   0  0  0  0  0  0  0  0  0  0  0  0
    0.2363   -2.1106    0.3029 C   0  0  0  0  0  0  0  0  0  0  0  0
   -0.0683   -2.2181   -1.0600 C   0  0  0  0  0  0  0  0  0  0  0  0
    0.1562   -3.4592   -1.7531 C   0  0  0  0  0  0  0  0  0  0  0  0
    0.3375   -4.4570   -2.3104 N   0  0  0  0  0  0  0  0  0  0  0  0
   -0.5804   -1.1112   -1.7495 C   0  0  0  0  0  0  0  0  0  0  0  0
   -0.7809    0.0998   -1.0800 C   0  0  0  0  0  0  0  0  0  0  0  0
    3.1222    3.8160    1.7746 C   0  0  0  0  0  0  0  0  0  0  0  0
    3.3764    5.3172    1.5028 C   0  0  0  0  0  0  0  0  0  0  0  0
    3.9713    6.0147    2.7640 C   0  0  0  0  0  0  0  0  0  0  0  0
    3.1835    7.2511    3.2119 C   0  0  0  0  0  0  0  0  0  0  0  0
    1.7512    6.9310    3.2658 N   0  0  0  0  0  0  0  0  0  0  0  0
    0.9708    7.1637    4.4525 C   0  0  0  0  0  0  0  0  0  0  0  0
    1.4645    7.8047    5.4196 O   0  0  0  0  0  0  0  0  0  0  0  0
   -0.3401    6.6632    4.5199 O   0  0  0  0  0  0  0  0  0  0  0  0
   -1.2310    6.7490    5.6412 C   0  0  0  0  0  0  0  0  0  0  0  0
   -0.6256    6.0460    6.8713 C   0  0  0  0  0  0  0  0  0  0  0  0
   -2.5272    6.0254    5.2452 C   0  0  0  0  0  0  0  0  0  0  0  0
   -1.5580    8.2197    5.9613 C   0  0  0  0  0  0  0  0  0  0  0  0
    1.0988    6.3275    2.0967 C   0  0  0  0  0  0  0  0  0  0  0  0
    2.1032    6.0240    0.9745 C   0  0  0  0  0  0  0  0  0  0  0  0
  1  2  1  0
  2  3  2  0
  3  4  1  0
  4  5  2  0
  5  6  1  0
  6  7  2  0
  7  8  1  0
  8  9  2  0
  8 10  2  0
  8 11  1  0
 11 12  1  0
 12 13  1  0
 13 14  1  0
 14 15  1  0
 15 16  1  0
 16 17  2  0
 17 18  1  0
 18 19  2  0
 19 20  1  0
 20 21  1  0
 14 22  1  0
 22 23  2  0
 23 24  1  0
 24 25  2  0
 25 26  1  0
 26 27  3  0
 25 28  1  0
 28 29  2  0
 11 30  1  0
 30 31  1  0
 31 32  1  0
 32 33  1  0
 33 34  1  0
 34 35  1  0
 35 36  2  0
 35 37  1  0
 37 38  1  0
 38 39  1  0
 38 40  1  0
 38 41  1  0
 34 42  1  0
 42 43  1  0
  7  2  1  0
 20 16  1  0
 29 22  1  0
 43 31  1  0
M  END
$$$$
2IEJ_S48
     RDKit          3D

 38 42  0  0  0  0  0  0  0  0999 V2000
   17.3573  136.1782   -6.4258 C   0  0  0  0  0  0  0  0  0  0  0  0
   17.3994  135.8968   -5.0323 O   0  0  0  0  0  0  0  0  0  0  0  0
   18.5403  135.3916   -4.4017 C   0  0  0  0  0  0  0  0  0  0  0  0
   19.6014  135.1953   -5.0547 O   0  0  0  0  0  0  0  0  0  0  0  0
   18.5175  135.1282   -2.9292 C   0  0  0  0  0  0  0  0  0  0  0  0
   17.2240  134.5324   -2.5272 N   0  0  0  0  0  0  0  0  0  0  0  0
   16.8231  134.8069   -1.1212 C   0  0  0  0  0  0  0  0  0  0  0  0
   16.2984  136.2408   -0.9724 C   0  0  0  0  0  0  0  0  0  0  0  0
   15.8012  136.4726    0.4282 C   0  0  0  0  0  0  0  0  0  0  0  0
   14.7837  137.4135    0.6495 C   0  0  0  0  0  0  0  0  0  0  0  0
   14.3065  137.6654    1.9451 C   0  0  0  0  0  0  0  0  0  0  0  0
   13.2241  138.6570    2.1720 C   0  0  0  0  0  0  0  0  0  0  0  0
   12.1905  138.3910    3.0903 C   0  0  0  0  0  0  0  0  0  0  0  0
   11.1727  139.3262    3.3014 C   0  0  0  0  0  0  0  0  0  0  0  0
   11.1748  140.5348    2.6015 C   0  0  0  0  0  0  0  0  0  0  0  0
   12.1949  140.8108    1.6884 C   0  0  0  0  0  0  0  0  0  0  0  0
   13.2148  139.8789    1.4725 C   0  0  0  0  0  0  0  0  0  0  0  0
   14.8679  136.9643    3.0223 C   0  0  0  0  0  0  0  0  0  0  0  0
   15.8935  136.0409    2.8137 C   0  0  0  0  0  0  0  0  0  0  0  0
   16.3909  135.7922    1.5179 C   0  0  0  0  0  0  0  0  0  0  0  0
   17.4728  134.8447    1.2870 N   0  0  0  0  0  0  0  0  0  0  0  0
   18.2653  134.2939    2.4001 C   0  0  0  0  0  0  0  0  0  0  0  0
   19.0241  135.3783    3.1187 C   0  0  0  0  0  0  0  0  0  0  0  0
   19.6404  136.4689    2.5399 C   0  0  0  0  0  0  0  0  0  0  0  0
   20.2683  137.1862    3.4942 N   0  0  0  0  0  0  0  0  0  0  0  0
   20.0322  136.5077    4.6372 C   0  0  0  0  0  0  0  0  0  0  0  0
   19.2930  135.3991    4.4373 N   0  0  0  0  0  0  0  0  0  0  0  0
   18.8572  134.4482    5.4551 C   0  0  0  0  0  0  0  0  0  0  0  0
   17.9326  134.5437   -0.0807 C   0  0  0  0  0  0  0  0  0  0  0  0
   17.1866  132.8134   -2.8849 S   0  0  0  0  0  6  0  0  0  0  0  0
   15.9612  132.1741   -2.2932 O   0  0  0  0  0  0  0  0  0  0  0  0
   18.4031  132.1283   -2.3259 O   0  0  0  0  0  0  0  0  0  0  0  0
   17.1335  132.5646   -4.6199 C   0  0  0  0  0  0  0  0  0  0  0  0
   18.1952  132.1997   -5.4153 C   0  0  0  0  0  0  0  0  0  0  0  0
   17.7487  132.1539   -6.6798 N   0  0  0  0  0  0  0  0  0  0  0  0
   18.5454  131.9251   -7.8777 C   0  0  0  0  0  0  0  0  0  0  0  0
   16.4495  132.5082   -6.6296 C   0  0  0  0  0  0  0  0  0  0  0  0
   16.0321  132.7654   -5.3717 N   0  0  0  0  0  0  0  0  0  0  0  0
  1  2  1  0
  2  3  1  0
  3  4  2  0
  3  5  1  0
  5  6  1  0
  6  7  1  0
  7  8  1  0
  8  9  1  0
  9 10  2  0
 10 11  1  0
 11 12  1  0
 12 13  2  0
 13 14  1  0
 14 15  2  0
 15 16  1  0
 16 17  2  0
 11 18  2  0
 18 19  1  0
 19 20  2  0
 20 21  1  0
 21 22  1  0
 22 23  1  0
 23 24  2  0
 24 25  1  0
 25 26  2  0
 26 27  1  0
 27 28  1  0
 21 29  1  0
  6 30  1  0
 30 31  2  0
 30 32  2  0
 30 33  1  0
 33 34  2  0
 34 35  1  0
 35 36  1  0
 35 37  1  0
 37 38  2  0
 29  7  1  0
 38 33  1  0
 20  9  1  0
 27 23  1  0
 17 12  1  0
M  END
$$$$
