1JCQ_739
     RDKit          3D

 34 34  0  0  0  0  0  0  0  0999 V2000
   14.6267  128.0220   -4.9646 C   0  0  0  0  0  0  0  0  0  0  0  0
   15.7118  128.5106   -4.0037 C   0  0  0  0  0  0  0  0  0  0  0  0
   16.8697  127.4927   -3.8297 C   0  0  0  0  0  0  0  0  0  0  0  0
   16.3882  126.2354   -3.0791 C   0  0  0  0  0  0  0  0  0  0  0  0
   18.1491  128.0987   -3.1423 C   0  0  0  0  0  0  0  0  0  0  0  0
   17.8368  128.8405   -1.8187 C   0  0  0  0  0  0  0  0  0  0  0  0
   17.2479  130.1005   -2.0828 O   0  0  0  0  0  0  0  0  0  0  0  0
   17.1948  130.8896   -0.9060 C   0  0  0  0  0  0  0  0  0  0  0  0
   16.0508  131.9149   -1.0226 C   0  0  0  0  0  0  0  0  0  0  0  0
   16.1874  132.8160   -2.2271 C   0  0  0  0  0  0  0  0  0  0  0  0
   15.6752  132.4164   -3.4724 C   0  0  0  0  0  0  0  0  0  0  0  0
   15.8592  133.2200   -4.6016 C   0  0  0  0  0  0  0  0  0  0  0  0
   16.5517  134.4291   -4.4953 C   0  0  0  0  0  0  0  0  0  0  0  0
   17.0555  134.8397   -3.2583 C   0  0  0  0  0  0  0  0  0  0  0  0
   16.8720  134.0397   -2.1267 C   0  0  0  0  0  0  0  0  0  0  0  0
   18.5146  131.5850   -0.6727 C   0  0  0  0  0  0  0  0  0  0  0  0
   18.9224  131.7510    0.5088 O   0  0  0  0  0  0  0  0  0  0  0  0
   19.2816  132.0822   -1.7809 N   0  0  0  0  0  0  0  0  0  0  0  0
   20.6098  132.6753   -1.6190 C   0  0  0  0  0  0  0  0  0  0  0  0
   21.6780  131.5759   -1.7502 C   0  0  0  0  0  0  0  0  0  0  0  0
   23.0862  132.0898   -1.4315 C   0  0  0  0  0  0  0  0  0  0  0  0
   24.2850  130.7747   -1.5742 S   0  0  0  0  0  6  0  0  0  0  0  0
   25.9031  131.4128   -1.2041 C   0  0  0  0  0  0  0  0  0  0  0  0
   23.9521  129.6746   -0.6059 O   0  0  0  0  0  0  0  0  0  0  0  0
   24.2760  130.2277   -2.9741 O   0  0  0  0  0  0  0  0  0  0  0  0
   20.7998  133.7637   -2.6407 C   0  0  0  0  0  0  0  0  0  0  0  0
   20.7930  133.4952   -3.8716 O   0  0  0  0  0  0  0  0  0  0  0  0
   20.9692  135.0794   -2.2285 O   0  0  0  0  0  1  0  0  0  0  0  0
   18.9287  128.9714   -4.0596 N   0  0  0  0  0  4  0  0  0  0  0  0
   19.8082  128.1964   -4.9601 C   0  0  0  0  0  0  0  0  0  0  0  0
   20.4483  129.0581   -6.0800 C   0  0  0  0  0  0  0  0  0  0  0  0
   21.2448  130.1607   -5.5231 N   0  0  0  0  0  4  0  0  0  0  0  0
   19.3946  129.5785   -7.0817 C   0  0  0  0  0  0  0  0  0  0  0  0
   20.1621  130.1315   -8.5936 S   0  0  0  0  0  1  0  0  0  0  0  0
  1  2  1  0
  2  3  1  0
  3  4  1  0
  3  5  1  0
  5  6  1  0
  6  7  1  0
  7  8  1  0
  8  9  1  0
  9 10  1  0
 10 11  2  0
 11 12  1  0
 12 13  2  0
 13 14  1  0
 14 15  2  0
  8 16  1  0
 16 17  2  0
 16 18  1  0
 18 19  1  0
 19 20  1  0
 20 21  1  0
 21 22  1  0
 22 23  1  0
 22 24  2  0
 22 25  2  0
 19 26  1  0
 26 27  2  0
 26 28  1  0
  5 29  1  0
 29 30  1  0
 30 31  1  0
 31 32  1  0
 31 33  1  0
 33 34  1  0
 15 10  1  0
M  CHG  4  28  -1  29   1  32   1  34  -1
M  END
$$$$
2IEJ_FII
     RDKit          3D

 24 23  0  0  0  0  0  0  0  0999 V2000
   13.2379  129.8522   -5.0177 C   0  0  0  0  0  0  0  0  0  0  0  0
   13.5873  128.6445   -5.8549 C   0  0  0  0  0  0  0  0  0  0  0  0
   12.5792  128.0943   -6.8304 C   0  0  0  0  0  0  0  0  0  0  0  0
   14.7890  128.0384   -5.7526 C   0  0  0  0  0  0  0  0  0  0  0  0
   15.8702  128.5070   -4.8089 C   0  0  0  0  0  0  0  0  0  0  0  0
   17.1177  127.6216   -4.9090 C   0  0  0  0  0  0  0  0  0  0  0  0
   18.1889  128.0877   -3.9468 C   0  0  0  0  0  0  0  0  0  0  0  0
   18.4133  127.3177   -2.6660 C   0  0  0  0  0  0  0  0  0  0  0  0
   18.9113  129.1901   -4.2526 C   0  0  0  0  0  0  0  0  0  0  0  0
   20.0296  129.7394   -3.4028 C   0  0  0  0  0  0  0  0  0  0  0  0
   21.3645  129.0806   -3.7686 C   0  0  0  0  0  0  0  0  0  0  0  0
   22.4825  129.6099   -2.8978 C   0  0  0  0  0  0  0  0  0  0  0  0
   23.4710  130.5947   -3.4764 C   0  0  0  0  0  0  0  0  0  0  0  0
   22.5806  129.1831   -1.6194 C   0  0  0  0  0  0  0  0  0  0  0  0
   23.6542  129.6488   -0.6744 C   0  0  0  0  0  0  0  0  0  0  0  0
   23.4814  129.0208    0.5731 O   0  0  0  0  0  0  0  0  0  0  0  0
   24.4699  129.4873    1.3815 N   0  0  0  0  0  0  0  0  0  0  0  0
   24.2324  130.5829    2.2712 C   0  0  0  0  0  0  0  0  0  0  0  0
   23.0915  131.1162    2.3225 O   0  0  0  0  0  0  0  0  0  0  0  0
   25.3469  131.1351    3.1015 C   0  0  0  0  0  0  0  0  0  0  0  0
   26.3207  132.3184    2.1243 P   0  0  0  0  0  5  0  0  0  0  0  0
   26.9255  131.6191    0.9282 O   0  0  0  0  0  0  0  0  0  0  0  0
   25.3210  133.5755    1.5946 O   0  0  0  0  0  1  0  0  0  0  0  0
   27.5575  132.9537    3.0862 O   0  0  0  0  0  1  0  0  0  0  0  0
  1  2  1  0
  2  3  1  0
  2  4  2  3
  4  5  1  0
  5  6  1  0
  6  7  1  0
  7  8  1  0
  7  9  2  0
  9 10  1  0
 10 11  1  0
 11 12  1  0
 12 13  1  0
 12 14  2  0
 14 15  1  0
 15 16  1  0
 16 17  1  0
 17 18  1  0
 18 19  2  0
 18 20  1  0
 20 21  1  0
 21 22  2  0
 21 23  1  0
 21 24  1  0
M  CHG  2  23  -1  24  -1
M  END
$$$$
1LD8_FPP
     RDKit          3D

 24 23  0  0  0  0  0  0  0  0999 V2000
   13.3231  129.8011   -6.3126 C   0  0  0  0  0  0  0  0  0  0  0  0
   14.2711  128.9467   -5.5114 C   0  0  0  0  0  0  0  0  0  0  0  0
   14.2190  127.4433   -5.6522 C   0  0  0  0  0  0  0  0  0  0  0  0
   15.1366  129.5577   -4.6723 C   0  0  0  0  0  0  0  0  0  0  0  0
   16.1667  128.8381   -3.8381 C   0  0  0  0  0  0  0  0  0  0  0  0
   17.4725  128.6614   -4.6207 C   0  0  0  0  0  0  0  0  0  0  0  0
   18.4874  127.8889   -3.8070 C   0  0  0  0  0  0  0  0  0  0  0  0
   18.7196  126.4291   -4.1183 C   0  0  0  0  0  0  0  0  0  0  0  0
   19.1474  128.5219   -2.8105 C   0  0  0  0  0  0  0  0  0  0  0  0
   20.2202  127.8909   -1.9545 C   0  0  0  0  0  0  0  0  0  0  0  0
   21.6035  127.9854   -2.6138 C   0  0  0  0  0  0  0  0  0  0  0  0
   22.0293  129.4233   -2.8303 C   0  0  0  0  0  0  0  0  0  0  0  0
   21.9650  130.0081   -4.2222 C   0  0  0  0  0  0  0  0  0  0  0  0
   22.4466  130.1548   -1.7726 C   0  0  0  0  0  0  0  0  0  0  0  0
   22.8766  131.5927   -1.8672 C   0  0  0  0  0  0  0  0  0  0  0  0
   24.0650  131.6730   -2.6166 O   0  0  0  0  0  0  0  0  0  0  0  0
   24.4584  133.3198   -2.8327 P   0  0  1  0  0  5  0  0  0  0  0  0
   23.4488  133.9528   -3.7635 O   0  0  0  0  0  0  0  0  0  0  0  0
   24.4246  134.1409   -1.3520 O   0  0  0  0  0  1  0  0  0  0  0  0
   26.0013  133.4755   -3.5330 O   0  0  0  0  0  0  0  0  0  0  0  0
   27.0767  132.5153   -2.6280 P   0  0  0  0  0  5  0  0  0  0  0  0
   26.8196  131.0505   -2.9015 O   0  0  0  0  0  0  0  0  0  0  0  0
   28.6572  132.8865   -3.0998 O   0  0  0  0  0  1  0  0  0  0  0  0
   26.9230  132.8180   -0.9696 O   0  0  0  0  0  1  0  0  0  0  0  0
  1  2  1  0
  2  3  1  0
  2  4  2  3
  4  5  1  0
  5  6  1  0
  6  7  1  0
  7  8  1  0
  7  9  2  0
  9 10  1  0
 10 11  1  0
 11 12  1  0
 12 13  1  0
 12 14  2  0
 14 15  1  0
 15 16  1  0
 16 17  1  0
 17 18  2  0
 17 19  1  1
 17 20  1  0
 20 21  1  0
 21 22  2  0
 21 23  1  0
 21 24  1  0
M  CHG  3  19  -1  23  -1  24  -1
M  END
$$$$
