1FPU_PRC
     RDKit          3D

 29 32  0  0  0  0  0  0  0  0999 V2000
   18.0558   54.3016   10.1776 C   0  0  0  0  0  0  0  0  0  0  0  0
   17.5379   53.2468   11.1173 C   0  0  0  0  0  0  0  0  0  0  0  0
   18.1548   51.9864   11.1463 C   0  0  0  0  0  0  0  0  0  0  0  0
   17.6868   50.9867   11.9995 C   0  0  0  0  0  0  0  0  0  0  0  0
   16.5977   51.2266   12.8444 C   0  0  0  0  0  0  0  0  0  0  0  0
   16.1143   50.1672   13.6885 N   0  0  0  0  0  0  0  0  0  0  0  0
   15.3567   50.3782   14.8890 C   0  0  0  0  0  0  0  0  0  0  0  0
   14.3761   49.6230   15.1275 O   0  0  0  0  0  0  0  0  0  0  0  0
   15.7334   51.4177   15.8775 C   0  0  0  0  0  0  0  0  0  0  0  0
   14.7850   51.9107   16.7883 C   0  0  0  0  0  0  0  0  0  0  0  0
   15.1555   52.8593   17.7427 C   0  0  0  0  0  0  0  0  0  0  0  0
   16.4764   53.3058   17.7861 C   0  0  0  0  0  0  0  0  0  0  0  0
   17.3878   52.8202   16.9033 N   0  0  0  0  0  0  0  0  0  0  0  0
   17.0522   51.8973   15.9626 C   0  0  0  0  0  0  0  0  0  0  0  0
   15.9608   52.4785   12.8047 C   0  0  0  0  0  0  0  0  0  0  0  0
   16.4241   53.4956   11.9509 C   0  0  0  0  0  0  0  0  0  0  0  0
   15.7176   54.7466   11.8693 N   0  0  0  0  0  0  0  0  0  0  0  0
   15.1976   55.4454   13.0082 C   0  0  0  0  0  0  0  0  0  0  0  0
   15.5865   55.1118   14.2683 N   0  0  0  0  0  0  0  0  0  0  0  0
   15.1214   55.7942   15.3450 C   0  0  0  0  0  0  0  0  0  0  0  0
   14.2345   56.8548   15.1709 C   0  0  0  0  0  0  0  0  0  0  0  0
   13.8379   57.1960   13.8683 C   0  0  0  0  0  0  0  0  0  0  0  0
   12.9051   58.3215   13.6017 C   0  0  0  0  0  0  0  0  0  0  0  0
   11.9430   58.7261   14.5458 C   0  0  0  0  0  0  0  0  0  0  0  0
   11.0770   59.7825   14.2579 C   0  0  0  0  0  0  0  0  0  0  0  0
   11.1702   60.4279   13.0253 C   0  0  0  0  0  0  0  0  0  0  0  0
   12.0944   60.0245   12.1152 N   0  0  0  0  0  0  0  0  0  0  0  0
   12.9494   58.9981   12.3692 C   0  0  0  0  0  0  0  0  0  0  0  0
   14.3424   56.4856   12.8219 N   0  0  0  0  0  0  0  0  0  0  0  0
  1  2  1  0
  2  3  2  0
  3  4  1  0
  4  5  2  0
  5  6  1  0
  6  7  1  0
  7  8  2  0
  7  9  1  0
  9 10  2  0
 10 11  1  0
 11 12  2  0
 12 13  1  0
 13 14  2  0
  5 15  1  0
 15 16  2  0
 16 17  1  0
 17 18  1  0
 18 19  2  0
 19 20  1  0
 20 21  2  0
 21 22  1  0
 22 23  1  0
 23 24  2  0
 24 25  1  0
 25 26  2  0
 26 27  1  0
 27 28  2  0
 22 29  2  0
 16  2  1  0
 29 18  1  0
 14  9  1  0
 28 23  1  0
M  END
$$$$
6HD6_FYH
     RDKit          3D

 27 29  0  0  0  0  0  0  0  0999 V2000
   -0.8617   -0.2801   -3.0159 O   0  0  0  0  0  0  0  0  0  0  0  0
   -0.6867   -0.0494   -1.7892 C   0  0  0  0  0  0  0  0  0  0  0  0
    0.1556    1.0496   -1.4064 N   0  0  0  0  0  0  0  0  0  0  0  0
    1.0305    1.0431   -0.2643 C   0  0  0  0  0  0  0  0  0  0  0  0
    1.4045    2.2596    0.3227 C   0  0  0  0  0  0  0  0  0  0  0  0
    2.2519    2.2813    1.4345 C   0  0  0  0  0  0  0  0  0  0  0  0
    2.7517    1.0788    1.9700 C   0  0  0  0  0  0  0  0  0  0  0  0
    3.6021    1.0398    3.0868 O   0  0  0  0  0  0  0  0  0  0  0  0
    4.0581    2.1778    3.8152 C   0  0  0  0  0  0  0  0  0  0  0  0
    2.9823    2.8649    4.3487 F   0  0  0  0  0  0  0  0  0  0  0  0
    4.7878    3.0125    2.9878 F   0  0  0  0  0  0  0  0  0  0  0  0
    4.8712    1.7527    4.8477 F   0  0  0  0  0  0  0  0  0  0  0  0
    2.3944   -0.1336    1.3693 C   0  0  0  0  0  0  0  0  0  0  0  0
    1.5476   -0.1554    0.2578 C   0  0  0  0  0  0  0  0  0  0  0  0
   -1.3908   -0.8846   -0.7857 C   0  0  0  0  0  0  0  0  0  0  0  0
   -1.7461   -2.2084   -1.0948 C   0  0  0  0  0  0  0  0  0  0  0  0
   -2.4087   -3.0006   -0.1541 C   0  0  0  0  0  0  0  0  0  0  0  0
   -2.7279   -2.4811    1.1018 C   0  0  0  0  0  0  0  0  0  0  0  0
   -2.3888   -1.1588    1.4260 C   0  0  0  0  0  0  0  0  0  0  0  0
   -2.7582   -0.5805    2.7724 C   0  0  0  0  0  0  0  0  0  0  0  0
   -3.9401    0.3087    2.6848 N   0  0  0  0  0  4  0  0  0  0  0  0
   -4.1464    1.0036    3.9717 C   0  0  0  0  0  0  0  0  0  0  0  0
   -5.3742    1.9415    3.9013 C   0  0  0  0  0  0  0  0  0  0  0  0
   -6.1493    1.7372    2.7333 O   0  0  0  0  0  0  0  0  0  0  0  0
   -6.4431    0.3634    2.5910 C   0  0  0  0  0  0  0  0  0  0  0  0
   -5.1606   -0.4459    2.3086 C   0  0  0  0  0  0  0  0  0  0  0  0
   -1.7338   -0.3616    0.4742 C   0  0  0  0  0  0  0  0  0  0  0  0
  1  2  2  0
  2  3  1  0
  3  4  1  0
  4  5  2  0
  5  6  1  0
  6  7  2  0
  7  8  1  0
  8  9  1  0
  9 10  1  0
  9 11  1  0
  9 12  1  0
  7 13  1  0
 13 14  2  0
  2 15  1  0
 15 16  2  0
 16 17  1  0
 17 18  2  0
 18 19  1  0
 19 20  1  0
 20 21  1  0
 21 22  1  0
 22 23  1  0
 23 24  1  0
 24 25  1  0
 25 26  1  0
 19 27  2  0
 14  4  1  0
 27 15  1  0
 26 21  1  0
M  CHG  1  21   1
M  END
$$$$
6HD4_FYW
     RDKit          3D

 32 35  0  0  0  0  0  0  0  0999 V2000
   15.1758   51.6008   16.0125 O   0  0  0  0  0  0  0  0  0  0  0  0
   16.0657   50.7624   15.7011 C   0  0  0  0  0  0  0  0  0  0  0  0
   16.6378   50.7879   14.3823 N   0  0  0  0  0  0  0  0  0  0  0  0
   16.6269   51.9454   13.5288 C   0  0  0  0  0  0  0  0  0  0  0  0
   16.6848   53.2470   14.0571 C   0  0  0  0  0  0  0  0  0  0  0  0
   16.6966   54.3569   13.2066 C   0  0  0  0  0  0  0  0  0  0  0  0
   16.6635   54.1827   11.8098 C   0  0  0  0  0  0  0  0  0  0  0  0
   16.6710   55.2601   10.9091 O   0  0  0  0  0  0  0  0  0  0  0  0
   16.7086   56.6382   11.2733 C   0  0  0  0  0  0  0  0  0  0  0  0
   15.5989   56.9610   12.0339 F   0  0  0  0  0  0  0  0  0  0  0  0
   17.8635   56.9123   11.9839 F   0  0  0  0  0  0  0  0  0  0  0  0
   16.6997   57.4058   10.1249 F   0  0  0  0  0  0  0  0  0  0  0  0
   16.6259   52.8850   11.2873 C   0  0  0  0  0  0  0  0  0  0  0  0
   16.6153   51.7756   12.1370 C   0  0  0  0  0  0  0  0  0  0  0  0
   16.4705   49.7289   16.6845 C   0  0  0  0  0  0  0  0  0  0  0  0
   15.6628   49.4490   17.7958 C   0  0  0  0  0  0  0  0  0  0  0  0
   16.0333   48.4989   18.6916 N   0  0  0  0  0  0  0  0  0  0  0  0
   17.1899   47.7933   18.5718 C   0  0  0  0  0  0  0  0  0  0  0  0
   17.4760   46.7629   19.5300 N   0  0  0  0  0  0  0  0  0  0  0  0
   17.5740   45.3571   19.1708 C   0  0  0  0  0  0  0  0  0  0  0  0
   17.7576   44.6110   20.4850 C   0  0  0  0  0  0  0  0  0  0  0  0
   17.2835   45.5737   21.5805 C   0  0  0  0  0  0  0  0  0  0  0  0
   15.9776   45.2582   21.9997 O   0  0  0  0  0  0  0  0  0  0  0  0
   17.3423   46.9728   20.9616 C   0  0  0  0  0  0  0  0  0  0  0  0
   18.0623   48.0658   17.4944 C   0  0  0  0  0  0  0  0  0  0  0  0
   19.3876   47.4148   17.3683 C   0  0  0  0  0  0  0  0  0  0  0  0
   20.2859   47.3800   18.4441 C   0  0  0  0  0  0  0  0  0  0  0  0
   21.4965   46.7814   18.3013 N   0  0  0  0  0  0  0  0  0  0  0  0
   21.8602   46.2138   17.1226 C   0  0  0  0  0  0  0  0  0  0  0  0
   21.0124   46.2438   16.0623 N   0  0  0  0  0  0  0  0  0  0  0  0
   19.7927   46.8331   16.1595 C   0  0  0  0  0  0  0  0  0  0  0  0
   17.6812   49.0320   16.5501 C   0  0  0  0  0  0  0  0  0  0  0  0
  1  2  2  0
  2  3  1  0
  3  4  1  0
  4  5  2  0
  5  6  1  0
  6  7  2  0
  7  8  1  0
  8  9  1  0
  9 10  1  0
  9 11  1  0
  9 12  1  0
  7 13  1  0
 13 14  2  0
  2 15  1  0
 15 16  2  0
 16 17  1  0
 17 18  2  0
 18 19  1  0
 19 20  1  0
 20 21  1  0
 21 22  1  0
 22 23  1  0
 22 24  1  0
 18 25  1  0
 25 26  1  0
 26 27  2  0
 27 28  1  0
 28 29  2  0
 29 30  1  0
 30 31  2  0
 25 32  2  0
 14  4  1  0
 32 15  1  0
 24 19  1  0
 31 26  1  0
M  END
$$$$
2QOH_P3Y
     RDKit          3D

 28 31  0  0  0  0  0  0  0  0999 V2000
    0.6745   -3.5016    1.4167 C   0  0  0  0  0  0  0  0  0  0  0  0
    0.3995   -2.2587    0.7790 O   0  0  0  0  0  0  0  0  0  0  0  0
    0.6242   -0.9976    1.3564 C   0  0  0  0  0  0  0  0  0  0  0  0
    1.1745   -0.8631    2.6475 C   0  0  0  0  0  0  0  0  0  0  0  0
    1.4078    0.4025    3.1892 C   0  0  0  0  0  0  0  0  0  0  0  0
    1.0934    1.5462    2.4565 C   0  0  0  0  0  0  0  0  0  0  0  0
    0.5439    1.4293    1.1789 C   0  0  0  0  0  0  0  0  0  0  0  0
    0.3073    0.1630    0.6169 C   0  0  0  0  0  0  0  0  0  0  0  0
   -0.2924    0.0632   -0.7321 C   0  0  0  0  0  0  0  0  0  0  0  0
   -1.3394   -0.7758   -1.1180 C   0  0  0  0  0  0  0  0  0  0  0  0
   -1.6508   -0.5805   -2.4199 N   0  0  0  0  0  0  0  0  0  0  0  0
   -0.8088    0.3698   -2.8539 C   0  0  0  0  0  0  0  0  0  0  0  0
   -0.7531    0.8692   -4.1120 N   0  0  0  0  0  0  0  0  0  0  0  0
    0.1763    1.8251   -4.4101 C   0  0  0  0  0  0  0  0  0  0  0  0
    1.0883    2.2876   -3.4223 C   0  0  0  0  0  0  0  0  0  0  0  0
    2.1056    3.3168   -3.7548 C   0  0  0  0  0  0  0  0  0  0  0  0
    3.4103    3.2323   -3.2409 C   0  0  0  0  0  0  0  0  0  0  0  0
    4.3307    4.1843   -3.5446 N   0  0  0  0  0  0  0  0  0  0  0  0
    4.0369    5.2356   -4.3526 C   0  0  0  0  0  0  0  0  0  0  0  0
    2.7572    5.3615   -4.9091 C   0  0  0  0  0  0  0  0  0  0  0  0
    2.4122    6.5133   -5.7693 C   0  0  0  0  0  0  0  0  0  0  0  0
    1.2972    7.0805   -5.6052 O   0  0  0  0  0  0  0  0  0  0  0  0
    3.3096    6.9937   -6.7905 N   0  0  0  0  0  0  0  0  0  0  0  0
    3.2113    8.3895   -7.2246 C   0  0  0  0  0  0  0  0  0  0  0  0
    4.1953    6.0632   -7.4989 C   0  0  0  0  0  0  0  0  0  0  0  0
    1.7869    4.4012   -4.5892 C   0  0  0  0  0  0  0  0  0  0  0  0
    1.0134    1.7461   -2.1183 C   0  0  0  0  0  0  0  0  0  0  0  0
    0.0337    0.7893   -1.8650 C   0  0  0  0  0  0  0  0  0  0  0  0
  1  2  1  0
  2  3  1  0
  3  4  2  0
  4  5  1  0
  5  6  2  0
  6  7  1  0
  7  8  2  0
  8  9  1  0
  9 10  2  0
 10 11  1  0
 11 12  1  0
 12 13  2  0
 13 14  1  0
 14 15  2  0
 15 16  1  0
 16 17  2  0
 17 18  1  0
 18 19  2  0
 19 20  1  0
 20 21  1  0
 21 22  2  0
 21 23  1  0
 23 24  1  0
 23 25  1  0
 20 26  2  0
 15 27  1  0
 27 28  2  0
  8  3  1  0
 28  9  1  0
 28 12  1  0
 26 16  1  0
M  END
$$$$
3KF4_B90
     RDKit          3D

 32 36  0  0  0  0  0  0  0  0999 V2000
    8.3827   -2.6220   -2.3694 C   0  0  0  0  0  0  0  0  0  0  0  0
    9.4364   -1.8615   -1.6085 C   0  0  0  0  0  0  0  0  0  0  0  0
   10.8064   -2.1071   -1.8927 C   0  0  0  0  0  0  0  0  0  0  0  0
   11.8214   -1.4257   -1.2016 C   0  0  0  0  0  0  0  0  0  0  0  0
   11.4388   -0.5134   -0.2270 C   0  0  0  0  0  0  0  0  0  0  0  0
   12.2279    0.2039    0.5867 N   0  0  0  0  0  0  0  0  0  0  0  0
   11.4565    0.9031    1.4100 N   0  0  0  0  0  0  0  0  0  0  0  0
   10.1623    0.6327    1.1161 C   0  0  0  0  0  0  0  0  0  0  0  0
   10.1275   -0.2658    0.0641 C   0  0  0  0  0  0  0  0  0  0  0  0
    9.0772   -0.9112   -0.6093 C   0  0  0  0  0  0  0  0  0  0  0  0
    7.6578   -0.6534   -0.2746 C   0  0  0  0  0  0  0  0  0  0  0  0
    7.1717    0.5865   -0.1401 C   0  0  0  0  0  0  0  0  0  0  0  0
    5.7924    0.8524    0.1647 N   0  0  0  0  0  0  0  0  0  0  0  0
    5.3079    2.0130    0.6764 C   0  0  0  0  0  0  0  0  0  0  0  0
    3.9551    2.0194    0.8249 N   0  0  0  0  0  0  0  0  0  0  0  0
    3.6001    0.8026    0.3734 C   0  0  0  0  0  0  0  0  0  0  0  0
    2.3294    0.2533    0.2343 C   0  0  0  0  0  0  0  0  0  0  0  0
    1.1596    0.9597    0.6777 N   0  0  0  0  0  0  0  0  0  0  0  0
   -0.1843    0.5771    0.3404 C   0  0  0  0  0  0  0  0  0  0  0  0
   -0.5019    0.0573   -0.9270 C   0  0  0  0  0  0  0  0  0  0  0  0
   -1.8206   -0.2850   -1.2394 C   0  0  0  0  0  0  0  0  0  0  0  0
   -2.8401   -0.1019   -0.2967 C   0  0  0  0  0  0  0  0  0  0  0  0
   -4.5318   -0.5395   -0.7138 P   0  0  0  0  0  5  0  0  0  0  0  0
   -5.0912    0.4798   -2.1066 C   0  0  0  0  0  0  0  0  0  0  0  0
   -4.6078   -2.2911   -1.1817 C   0  0  0  0  0  0  0  0  0  0  0  0
   -5.4438   -0.3047    0.4694 O   0  0  0  0  0  0  0  0  0  0  0  0
   -2.5321    0.4410    0.9579 C   0  0  0  0  0  0  0  0  0  0  0  0
   -1.2135    0.7844    1.2706 C   0  0  0  0  0  0  0  0  0  0  0  0
    2.2437   -1.0021   -0.3030 N   0  0  0  0  0  0  0  0  0  0  0  0
    3.3597   -1.6838   -0.7147 C   0  0  0  0  0  0  0  0  0  0  0  0
    4.5998   -1.1248   -0.5850 N   0  0  0  0  0  0  0  0  0  0  0  0
    4.6911    0.1060   -0.0246 C   0  0  0  0  0  0  0  0  0  0  0  0
  1  2  1  0
  2  3  2  0
  3  4  1  0
  4  5  2  0
  5  6  1  0
  6  7  1  0
  7  8  2  0
  8  9  1  0
  9 10  2  0
 10 11  1  0
 11 12  2  0
 12 13  1  0
 13 14  1  0
 14 15  2  0
 15 16  1  0
 16 17  2  0
 17 18  1  0
 18 19  1  0
 19 20  2  0
 20 21  1  0
 21 22  2  0
 22 23  1  0
 23 24  1  0
 23 25  1  0
 23 26  2  0
 22 27  1  0
 27 28  2  0
 17 29  1  0
 29 30  2  0
 30 31  1  0
 31 32  2  0
 10  2  1  0
 32 13  1  0
  9  5  1  0
 32 16  1  0
 28 19  1  0
M  END
$$$$
3MS9_MS9
     RDKit          3D

 12 12  0  0  0  0  0  0  0  0999 V2000
   17.5438   55.9838    8.5199 C   0  0  0  0  0  0  0  0  0  0  0  0
   17.5721   55.1760    9.6905 O   0  0  0  0  0  0  0  0  0  0  0  0
   16.4121   54.7977   10.3749 C   0  0  0  0  0  0  0  0  0  0  0  0
   15.2804   55.1492    9.9422 O   0  0  0  0  0  0  0  0  0  0  0  0
   16.5220   53.9330   11.5713 C   0  0  0  0  0  0  0  0  0  0  0  0
   17.5708   52.9969   11.6202 C   0  0  0  0  0  0  0  0  0  0  0  0
   17.6816   52.1040   12.6873 C   0  0  0  0  0  0  0  0  0  0  0  0
   16.7484   52.1321   13.7234 C   0  0  0  0  0  0  0  0  0  0  0  0
   16.8863   51.0035   15.0594 Cl  0  0  0  0  0  0  0  0  0  0  0  0
   15.7120   53.0682   13.7029 C   0  0  0  0  0  0  0  0  0  0  0  0
   15.5950   53.9851   12.6455 C   0  0  0  0  0  0  0  0  0  0  0  0
   14.5708   54.9866   12.7173 N   0  0  0  0  0  0  0  0  0  0  0  0
  1  2  1  0
  2  3  1  0
  3  4  2  0
  3  5  1  0
  5  6  2  0
  6  7  1  0
  7  8  2  0
  8  9  1  0
  8 10  1  0
 10 11  2  0
 11 12  1  0
 11  5  1  0
M  END
$$$$
3K5V_STJ
     RDKit          3D

 27 29  0  0  0  0  0  0  0  0999 V2000
    4.1037   -1.8911    1.8363 N   0  0  0  0  0  0  0  0  0  0  0  0
    4.2277   -1.5529    0.4522 C   0  0  0  0  0  0  0  0  0  0  0  0
    5.2482   -1.9394   -0.1792 O   0  0  0  0  0  0  0  0  0  0  0  0
    3.1952   -0.7473   -0.2449 C   0  0  0  0  0  0  0  0  0  0  0  0
    3.5330   -0.0295   -1.4045 C   0  0  0  0  0  0  0  0  0  0  0  0
    2.5727    0.7338   -2.0693 C   0  0  0  0  0  0  0  0  0  0  0  0
    1.2608    0.7823   -1.5959 C   0  0  0  0  0  0  0  0  0  0  0  0
    0.8890    0.0538   -0.4511 C   0  0  0  0  0  0  0  0  0  0  0  0
   -0.5030    0.0884    0.0672 C   0  0  0  0  0  0  0  0  0  0  0  0
   -1.6048    0.2731   -0.7844 C   0  0  0  0  0  0  0  0  0  0  0  0
   -2.8920    0.2840   -0.2354 C   0  0  0  0  0  0  0  0  0  0  0  0
   -4.0317    0.5003   -1.0838 N   0  0  0  0  0  0  0  0  0  0  0  0
   -5.3916    0.2684   -0.6789 C   0  0  0  0  0  0  0  0  0  0  0  0
   -6.4088    1.0943   -1.1774 C   0  0  0  0  0  0  0  0  0  0  0  0
   -7.7421    0.8759   -0.8176 C   0  0  0  0  0  0  0  0  0  0  0  0
   -8.0811   -0.1897    0.0383 C   0  0  0  0  0  0  0  0  0  0  0  0
   -9.4019   -0.4558    0.4340 O   0  0  0  0  0  0  0  0  0  0  0  0
  -10.5476    0.2957    0.0391 C   0  0  0  0  0  0  0  0  0  0  0  0
  -10.6954    0.2527   -1.3357 F   0  0  0  0  0  0  0  0  0  0  0  0
  -11.6699   -0.2570    0.6249 F   0  0  0  0  0  0  0  0  0  0  0  0
  -10.4255    1.6079    0.4597 F   0  0  0  0  0  0  0  0  0  0  0  0
   -7.0667   -1.0274    0.5158 C   0  0  0  0  0  0  0  0  0  0  0  0
   -5.7337   -0.8084    0.1568 C   0  0  0  0  0  0  0  0  0  0  0  0
   -3.0463    0.1317    1.1075 N   0  0  0  0  0  0  0  0  0  0  0  0
   -1.9763   -0.0545    1.9206 C   0  0  0  0  0  0  0  0  0  0  0  0
   -0.7228   -0.0783    1.4004 N   0  0  0  0  0  0  0  0  0  0  0  0
    1.8673   -0.7038    0.2206 C   0  0  0  0  0  0  0  0  0  0  0  0
  1  2  1  0
  2  3  2  0
  2  4  1  0
  4  5  2  0
  5  6  1  0
  6  7  2  0
  7  8  1  0
  8  9  1  0
  9 10  2  0
 10 11  1  0
 11 12  1  0
 12 13  1  0
 13 14  2  0
 14 15  1  0
 15 16  2  0
 16 17  1  0
 17 18  1  0
 18 19  1  0
 18 20  1  0
 18 21  1  0
 16 22  1  0
 22 23  2  0
 11 24  2  0
 24 25  1  0
 25 26  2  0
  8 27  2  0
 27  4  1  0
 26  9  1  0
 23 13  1  0
M  END
$$$$
3K5V_STI
     RDKit          3D

 37 41  0  0  0  0  0  0  0  0999 V2000
    0.0726    3.3528    0.4775 C   0  0  0  0  0  0  0  0  0  0  0  0
   -1.2967    2.7280    0.4798 C   0  0  0  0  0  0  0  0  0  0  0  0
   -2.4152    3.5410    0.2401 C   0  0  0  0  0  0  0  0  0  0  0  0
   -3.7035    3.0037    0.2686 C   0  0  0  0  0  0  0  0  0  0  0  0
   -3.9004    1.6404    0.5213 C   0  0  0  0  0  0  0  0  0  0  0  0
   -5.2394    1.1182    0.5764 N   0  0  0  0  0  0  0  0  0  0  0  0
   -5.5866   -0.2276    0.2084 C   0  0  0  0  0  0  0  0  0  0  0  0
   -4.8270   -0.8811   -0.5584 O   0  0  0  0  0  0  0  0  0  0  0  0
   -6.8530   -0.8411    0.6772 C   0  0  0  0  0  0  0  0  0  0  0  0
   -7.5293   -0.3336    1.8008 C   0  0  0  0  0  0  0  0  0  0  0  0
   -8.7198   -0.9211    2.2378 C   0  0  0  0  0  0  0  0  0  0  0  0
   -9.2633   -2.0220    1.5575 C   0  0  0  0  0  0  0  0  0  0  0  0
  -10.5505   -2.6647    2.0386 C   0  0  0  0  0  0  0  0  0  0  0  0
  -11.7890   -2.0475    1.4984 N   0  0  0  0  0  4  0  0  0  0  0  0
  -11.9164   -0.6185    1.8476 C   0  0  0  0  0  0  0  0  0  0  0  0
  -13.3172   -0.0760    1.4790 C   0  0  0  0  0  0  0  0  0  0  0  0
  -14.0000   -0.9020    0.4531 N   0  0  0  0  0  4  0  0  0  0  0  0
  -15.0947   -0.1397   -0.1712 C   0  0  0  0  0  0  0  0  0  0  0  0
  -13.0510   -1.3717   -0.5757 C   0  0  0  0  0  0  0  0  0  0  0  0
  -11.9376   -2.2546    0.0374 C   0  0  0  0  0  0  0  0  0  0  0  0
   -8.5742   -2.5486    0.4539 C   0  0  0  0  0  0  0  0  0  0  0  0
   -7.3833   -1.9631    0.0161 C   0  0  0  0  0  0  0  0  0  0  0  0
   -2.7846    0.8216    0.7647 C   0  0  0  0  0  0  0  0  0  0  0  0
   -1.4855    1.3456    0.7121 C   0  0  0  0  0  0  0  0  0  0  0  0
   -0.3772    0.4648    0.9434 N   0  0  0  0  0  0  0  0  0  0  0  0
    0.6143    0.1945   -0.0551 C   0  0  0  0  0  0  0  0  0  0  0  0
    0.4894    0.7004   -1.3114 N   0  0  0  0  0  0  0  0  0  0  0  0
    1.4159    0.4351   -2.2663 C   0  0  0  0  0  0  0  0  0  0  0  0
    2.5143   -0.3698   -1.9685 C   0  0  0  0  0  0  0  0  0  0  0  0
    2.6383   -0.8897   -0.6698 C   0  0  0  0  0  0  0  0  0  0  0  0
    3.7757   -1.7625   -0.2796 C   0  0  0  0  0  0  0  0  0  0  0  0
    5.0307   -1.6708   -0.9099 C   0  0  0  0  0  0  0  0  0  0  0  0
    6.0795   -2.5014   -0.5115 C   0  0  0  0  0  0  0  0  0  0  0  0
    5.8739   -3.4173    0.5196 C   0  0  0  0  0  0  0  0  0  0  0  0
    4.6629   -3.4924    1.1302 N   0  0  0  0  0  0  0  0  0  0  0  0
    3.6245   -2.6949    0.7628 C   0  0  0  0  0  0  0  0  0  0  0  0
    1.6760   -0.5980    0.2488 N   0  0  0  0  0  0  0  0  0  0  0  0
  1  2  1  0
  2  3  2  0
  3  4  1  0
  4  5  2  0
  5  6  1  0
  6  7  1  0
  7  8  2  0
  7  9  1  0
  9 10  2  0
 10 11  1  0
 11 12  2  0
 12 13  1  0
 13 14  1  0
 14 15  1  0
 15 16  1  0
 16 17  1  0
 17 18  1  0
 17 19  1  0
 19 20  1  0
 12 21  1  0
 21 22  2  0
  5 23  1  0
 23 24  2  0
 24 25  1  0
 25 26  1  0
 26 27  2  0
 27 28  1  0
 28 29  2  0
 29 30  1  0
 30 31  1  0
 31 32  2  0
 32 33  1  0
 33 34  2  0
 34 35  1  0
 35 36  2  0
 30 37  2  0
 24  2  1  0
 37 26  1  0
 22  9  1  0
 36 31  1  0
 20 14  1  0
M  CHG  2  14   1  17   1
M  END
$$$$
3KFA_B91
     RDKit          3D

 41 46  0  0  0  0  0  0  0  0999 V2000
    0.3345    3.9101    4.7734 C   0  0  0  0  0  0  0  0  0  0  0  0
   -0.7139    3.4183    3.8326 C   0  0  0  0  0  0  0  0  0  0  0  0
   -0.5191    2.5152    2.8133 C   0  0  0  0  0  0  0  0  0  0  0  0
   -1.7163    2.2677    2.2495 N   0  0  0  0  0  0  0  0  0  0  0  0
   -1.9887    1.3685    1.1566 C   0  0  0  0  0  0  0  0  0  0  0  0
   -0.9966    1.0988    0.2020 C   0  0  0  0  0  0  0  0  0  0  0  0
   -1.2199    0.1719   -0.8292 C   0  0  0  0  0  0  0  0  0  0  0  0
   -0.1925   -0.1428   -1.7878 N   0  0  0  0  0  0  0  0  0  0  0  0
    1.2181   -0.0307   -1.5315 C   0  0  0  0  0  0  0  0  0  0  0  0
    1.9918    0.2410   -2.4885 O   0  0  0  0  0  0  0  0  0  0  0  0
    1.7871   -0.2486   -0.1813 C   0  0  0  0  0  0  0  0  0  0  0  0
    1.2315   -1.2021    0.6814 C   0  0  0  0  0  0  0  0  0  0  0  0
    1.7196   -1.3494    1.9788 C   0  0  0  0  0  0  0  0  0  0  0  0
    2.7857   -0.5595    2.4380 C   0  0  0  0  0  0  0  0  0  0  0  0
    3.2692   -0.7392    3.8538 C   0  0  0  0  0  0  0  0  0  0  0  0
    3.3743    0.3923    1.5681 C   0  0  0  0  0  0  0  0  0  0  0  0
    4.4723    1.2756    2.0414 C   0  0  0  0  0  0  0  0  0  0  0  0
    5.4531    1.7085    1.2367 C   0  0  0  0  0  0  0  0  0  0  0  0
    6.5150    2.5592    1.7027 N   0  0  0  0  0  0  0  0  0  0  0  0
    6.6970    3.1409    2.9209 C   0  0  0  0  0  0  0  0  0  0  0  0
    7.8255    3.8996    2.9941 N   0  0  0  0  0  0  0  0  0  0  0  0
    8.3508    3.7727    1.7618 C   0  0  0  0  0  0  0  0  0  0  0  0
    9.5128    4.3267    1.2355 C   0  0  0  0  0  0  0  0  0  0  0  0
   10.3628    5.1716    2.0217 N   0  0  0  0  0  0  0  0  0  0  0  0
   11.5602    5.7856    1.4560 C   0  0  0  0  0  0  0  0  0  0  0  0
   12.7266    4.8202    1.3312 C   0  0  0  0  0  0  0  0  0  0  0  0
   12.7251    5.8747    2.4267 C   0  0  0  0  0  0  0  0  0  0  0  0
    9.8176    4.0318   -0.0655 N   0  0  0  0  0  0  0  0  0  0  0  0
    9.0113    3.2226   -0.8249 C   0  0  0  0  0  0  0  0  0  0  0  0
    7.8717    2.6850   -0.2946 N   0  0  0  0  0  0  0  0  0  0  0  0
    7.5712    2.9776    0.9943 C   0  0  0  0  0  0  0  0  0  0  0  0
    2.8644    0.5327    0.2615 C   0  0  0  0  0  0  0  0  0  0  0  0
   -2.4766   -0.4365   -0.9413 C   0  0  0  0  0  0  0  0  0  0  0  0
   -3.4861   -0.1792    0.0017 C   0  0  0  0  0  0  0  0  0  0  0  0
   -4.8471   -0.8140   -0.1440 C   0  0  0  0  0  0  0  0  0  0  0  0
   -4.7511   -2.0456   -0.7687 F   0  0  0  0  0  0  0  0  0  0  0  0
   -5.4327   -1.0042    1.0957 F   0  0  0  0  0  0  0  0  0  0  0  0
   -5.6553    0.0129   -0.9016 F   0  0  0  0  0  0  0  0  0  0  0  0
   -3.2378    0.7354    1.0397 C   0  0  0  0  0  0  0  0  0  0  0  0
   -2.6034    3.0122    2.9456 C   0  0  0  0  0  0  0  0  0  0  0  0
   -2.0221    3.7280    3.9320 N   0  0  0  0  0  0  0  0  0  0  0  0
  1  2  1  0
  2  3  2  0
  3  4  1  0
  4  5  1  0
  5  6  2  0
  6  7  1  0
  7  8  1  0
  8  9  1  0
  9 10  2  0
  9 11  1  0
 11 12  2  0
 12 13  1  0
 13 14  2  0
 14 15  1  0
 14 16  1  0
 16 17  1  0
 17 18  2  0
 18 19  1  0
 19 20  1  0
 20 21  2  0
 21 22  1  0
 22 23  2  0
 23 24  1  0
 24 25  1  0
 25 26  1  0
 26 27  1  0
 23 28  1  0
 28 29  2  0
 29 30  1  0
 30 31  2  0
 16 32  2  0
  7 33  2  0
 33 34  1  0
 34 35  1  0
 35 36  1  0
 35 37  1  0
 35 38  1  0
 34 39  2  0
  4 40  1  0
 40 41  2  0
 41  2  1  0
 39  5  1  0
 32 11  1  0
 31 19  1  0
 31 22  1  0
 27 25  1  0
M  END
$$$$
