1FPU_PRC
     RDKit          3D

 29 32  0  0  0  0  0  0  0  0999 V2000
    0.1845   -2.2264    2.1226 C   0  0  0  0  0  0  0  0  0  0  0  0
    0.7299   -1.4956    0.9259 C   0  0  0  0  0  0  0  0  0  0  0  0
    2.0867   -1.6322    0.5924 C   0  0  0  0  0  0  0  0  0  0  0  0
    2.6171   -0.9650   -0.5125 C   0  0  0  0  0  0  0  0  0  0  0  0
    1.7988   -0.1490   -1.3092 C   0  0  0  0  0  0  0  0  0  0  0  0
    2.3183    0.5337   -2.4641 N   0  0  0  0  0  0  0  0  0  0  0  0
    3.6930    0.9161   -2.6266 C   0  0  0  0  0  0  0  0  0  0  0  0
    4.2140    0.8345   -3.7713 O   0  0  0  0  0  0  0  0  0  0  0  0
    4.4960    1.4479   -1.4993 C   0  0  0  0  0  0  0  0  0  0  0  0
    3.8859    2.1075   -0.4192 C   0  0  0  0  0  0  0  0  0  0  0  0
    4.6632    2.6026    0.6290 C   0  0  0  0  0  0  0  0  0  0  0  0
    6.0488    2.4449    0.5869 C   0  0  0  0  0  0  0  0  0  0  0  0
    6.6302    1.8184   -0.4695 N   0  0  0  0  0  0  0  0  0  0  0  0
    5.8957    1.3265   -1.5030 C   0  0  0  0  0  0  0  0  0  0  0  0
    0.4373   -0.0369   -0.9998 C   0  0  0  0  0  0  0  0  0  0  0  0
   -0.1055   -0.6884    0.1218 C   0  0  0  0  0  0  0  0  0  0  0  0
   -1.5098   -0.5725    0.4130 N   0  0  0  0  0  0  0  0  0  0  0  0
   -2.2311    0.6658    0.3551 C   0  0  0  0  0  0  0  0  0  0  0  0
   -1.5735    1.8494    0.2248 N   0  0  0  0  0  0  0  0  0  0  0  0
   -2.2501    3.0248    0.1884 C   0  0  0  0  0  0  0  0  0  0  0  0
   -3.6398    3.0335    0.2956 C   0  0  0  0  0  0  0  0  0  0  0  0
   -4.3128    1.8107    0.4504 C   0  0  0  0  0  0  0  0  0  0  0  0
   -5.7919    1.7391    0.5724 C   0  0  0  0  0  0  0  0  0  0  0  0
   -6.4767    0.5780    0.1736 C   0  0  0  0  0  0  0  0  0  0  0  0
   -7.8653    0.5032    0.2915 C   0  0  0  0  0  0  0  0  0  0  0  0
   -8.5663    1.5881    0.8168 C   0  0  0  0  0  0  0  0  0  0  0  0
   -7.8971    2.7017    1.2133 N   0  0  0  0  0  0  0  0  0  0  0  0
   -6.5450    2.8026    1.1066 C   0  0  0  0  0  0  0  0  0  0  0  0
   -3.5855    0.6594    0.4723 N   0  0  0  0  0  0  0  0  0  0  0  0
  1  2  1  0
  2  3  2  0
  3  4  1  0
  4  5  2  0
  5  6  1  0
  6  7  1  0
  7  8  2  0
  7  9  1  0
  9 10  2  0
 10 11  1  0
 11 12  2  0
 12 13  1  0
 13 14  2  0
  5 15  1  0
 15 16  2  0
 16 17  1  0
 17 18  1  0
 18 19  2  0
 19 20  1  0
 20 21  2  0
 21 22  1  0
 22 23  1  0
 23 24  2  0
 24 25  1  0
 25 26  2  0
 26 27  1  0
 27 28  2  0
 22 29  2  0
 16  2  1  0
 29 18  1  0
 14  9  1  0
 28 23  1  0
M  END
$$$$
6HD6_FYH
     RDKit          3D

 27 29  0  0  0  0  0  0  0  0999 V2000
   35.9763   -8.6801  -24.9180 O   0  0  0  0  0  0  0  0  0  0  0  0
   36.0349   -7.9851  -25.9679 C   0  0  0  0  0  0  0  0  0  0  0  0
   35.8853   -8.6383  -27.2383 N   0  0  0  0  0  0  0  0  0  0  0  0
   36.6155   -8.2814  -28.4256 C   0  0  0  0  0  0  0  0  0  0  0  0
   36.0895   -8.6124  -29.6817 C   0  0  0  0  0  0  0  0  0  0  0  0
   36.7827   -8.2823  -30.8495 C   0  0  0  0  0  0  0  0  0  0  0  0
   38.0183   -7.6283  -30.7843 C   0  0  0  0  0  0  0  0  0  0  0  0
   38.6683   -7.3174  -31.9895 O   0  0  0  0  0  0  0  0  0  0  0  0
   39.9258   -6.6541  -32.1001 C   0  0  0  0  0  0  0  0  0  0  0  0
   39.8539   -5.3970  -31.5269 F   0  0  0  0  0  0  0  0  0  0  0  0
   40.2437   -6.5161  -33.4372 F   0  0  0  0  0  0  0  0  0  0  0  0
   40.9137   -7.3991  -31.4814 F   0  0  0  0  0  0  0  0  0  0  0  0
   38.5596   -7.3127  -29.5234 C   0  0  0  0  0  0  0  0  0  0  0  0
   37.8666   -7.6433  -28.3551 C   0  0  0  0  0  0  0  0  0  0  0  0
   36.2062   -6.5163  -25.8582 C   0  0  0  0  0  0  0  0  0  0  0  0
   35.6826   -5.6556  -26.8385 C   0  0  0  0  0  0  0  0  0  0  0  0
   35.8446   -4.2731  -26.7243 C   0  0  0  0  0  0  0  0  0  0  0  0
   36.5226   -3.7333  -25.6299 C   0  0  0  0  0  0  0  0  0  0  0  0
   37.0451   -4.5758  -24.6370 C   0  0  0  0  0  0  0  0  0  0  0  0
   37.7510   -3.9948  -23.4336 C   0  0  0  0  0  0  0  0  0  0  0  0
   36.8820   -3.9918  -22.2335 N   0  0  0  0  0  4  0  0  0  0  0  0
   37.6652   -3.6031  -21.0429 C   0  0  0  0  0  0  0  0  0  0  0  0
   36.7775   -3.5978  -19.7764 C   0  0  0  0  0  0  0  0  0  0  0  0
   35.3985   -3.7178  -20.0774 O   0  0  0  0  0  0  0  0  0  0  0  0
   35.0405   -2.7661  -21.0571 C   0  0  0  0  0  0  0  0  0  0  0  0
   35.7234   -3.0812  -22.4040 C   0  0  0  0  0  0  0  0  0  0  0  0
   36.8752   -5.9651  -24.7514 C   0  0  0  0  0  0  0  0  0  0  0  0
  1  2  2  0
  2  3  1  0
  3  4  1  0
  4  5  2  0
  5  6  1  0
  6  7  2  0
  7  8  1  0
  8  9  1  0
  9 10  1  0
  9 11  1  0
  9 12  1  0
  7 13  1  0
 13 14  2  0
  2 15  1  0
 15 16  2  0
 16 17  1  0
 17 18  2  0
 18 19  1  0
 19 20  1  0
 20 21  1  0
 21 22  1  0
 22 23  1  0
 23 24  1  0
 24 25  1  0
 25 26  1  0
 19 27  2  0
 14  4  1  0
 27 15  1  0
 26 21  1  0
M  CHG  1  21   1
M  END
$$$$
6HD4_FYW
     RDKit          3D

 32 35  0  0  0  0  0  0  0  0999 V2000
   37.7214   -9.3173  -25.9659 O   0  0  0  0  0  0  0  0  0  0  0  0
   36.4814   -9.0910  -26.0138 C   0  0  0  0  0  0  0  0  0  0  0  0
   35.8815   -8.6298  -27.2396 N   0  0  0  0  0  0  0  0  0  0  0  0
   36.6287   -8.3061  -28.4245 C   0  0  0  0  0  0  0  0  0  0  0  0
   36.0858   -8.6051  -29.6818 C   0  0  0  0  0  0  0  0  0  0  0  0
   36.7808   -8.2791  -30.8496 C   0  0  0  0  0  0  0  0  0  0  0  0
   38.0207   -7.6334  -30.7842 C   0  0  0  0  0  0  0  0  0  0  0  0
   38.6754   -7.3316  -31.9894 O   0  0  0  0  0  0  0  0  0  0  0  0
   39.9381   -6.6783  -32.0998 C   0  0  0  0  0  0  0  0  0  0  0  0
   40.2650   -6.5579  -33.4365 F   0  0  0  0  0  0  0  0  0  0  0  0
   40.9173   -7.4227  -31.4667 F   0  0  0  0  0  0  0  0  0  0  0  0
   39.8713   -5.4142  -31.5415 F   0  0  0  0  0  0  0  0  0  0  0  0
   38.5573   -7.3089  -29.5234 C   0  0  0  0  0  0  0  0  0  0  0  0
   37.8625   -7.6363  -28.3548 C   0  0  0  0  0  0  0  0  0  0  0  0
   35.6652   -9.3159  -24.7964 C   0  0  0  0  0  0  0  0  0  0  0  0
   36.2461   -9.1791  -23.5283 C   0  0  0  0  0  0  0  0  0  0  0  0
   35.5043   -9.3736  -22.4084 N   0  0  0  0  0  0  0  0  0  0  0  0
   34.1905   -9.7234  -22.4538 C   0  0  0  0  0  0  0  0  0  0  0  0
   33.4605   -9.8407  -21.2215 N   0  0  0  0  0  0  0  0  0  0  0  0
   34.0344  -10.4525  -20.0359 C   0  0  0  0  0  0  0  0  0  0  0  0
   33.0148  -10.2268  -18.9293 C   0  0  0  0  0  0  0  0  0  0  0  0
   32.1610   -9.0477  -19.4008 C   0  0  0  0  0  0  0  0  0  0  0  0
   30.8228   -9.1957  -19.0057 O   0  0  0  0  0  0  0  0  0  0  0  0
   32.2785   -9.0458  -20.9222 C   0  0  0  0  0  0  0  0  0  0  0  0
   33.5697   -9.9267  -23.7063 C   0  0  0  0  0  0  0  0  0  0  0  0
   32.1864  -10.4405  -23.8252 C   0  0  0  0  0  0  0  0  0  0  0  0
   31.2452   -9.7965  -24.6384 C   0  0  0  0  0  0  0  0  0  0  0  0
   29.9844  -10.2905  -24.7423 N   0  0  0  0  0  0  0  0  0  0  0  0
   29.6167  -11.4135  -24.0730 C   0  0  0  0  0  0  0  0  0  0  0  0
   30.5149  -12.0636  -23.2888 N   0  0  0  0  0  0  0  0  0  0  0  0
   31.7860  -11.6047  -23.1550 C   0  0  0  0  0  0  0  0  0  0  0  0
   34.3194   -9.7064  -24.8726 C   0  0  0  0  0  0  0  0  0  0  0  0
  1  2  2  0
  2  3  1  0
  3  4  1  0
  4  5  2  0
  5  6  1  0
  6  7  2  0
  7  8  1  0
  8  9  1  0
  9 10  1  0
  9 11  1  0
  9 12  1  0
  7 13  1  0
 13 14  2  0
  2 15  1  0
 15 16  2  0
 16 17  1  0
 17 18  2  0
 18 19  1  0
 19 20  1  0
 20 21  1  0
 21 22  1  0
 22 23  1  0
 22 24  1  0
 18 25  1  0
 25 26  1  0
 26 27  2  0
 27 28  1  0
 28 29  2  0
 29 30  1  0
 30 31  2  0
 25 32  2  0
 14  4  1  0
 32 15  1  0
 24 19  1  0
 31 26  1  0
M  END
$$$$
2QOH_P3Y
     RDKit          3D

 28 31  0  0  0  0  0  0  0  0999 V2000
   -0.3752    2.5920    3.9457 C   0  0  0  0  0  0  0  0  0  0  0  0
    0.1165    1.4862    3.1951 O   0  0  0  0  0  0  0  0  0  0  0  0
    0.3905    0.2155    3.7284 C   0  0  0  0  0  0  0  0  0  0  0  0
    0.2982   -0.0389    5.1118 C   0  0  0  0  0  0  0  0  0  0  0  0
    0.6273   -1.2956    5.6239 C   0  0  0  0  0  0  0  0  0  0  0  0
    1.0543   -2.3105    4.7684 C   0  0  0  0  0  0  0  0  0  0  0  0
    1.1409   -2.0773    3.3950 C   0  0  0  0  0  0  0  0  0  0  0  0
    0.7928   -0.8254    2.8611 C   0  0  0  0  0  0  0  0  0  0  0  0
    0.8724   -0.6221    1.3979 C   0  0  0  0  0  0  0  0  0  0  0  0
    1.9176   -1.0181    0.5623 C   0  0  0  0  0  0  0  0  0  0  0  0
    1.6556   -0.6789   -0.7215 N   0  0  0  0  0  0  0  0  0  0  0  0
    0.4514   -0.0870   -0.6999 C   0  0  0  0  0  0  0  0  0  0  0  0
   -0.2196    0.3958   -1.7740 N   0  0  0  0  0  0  0  0  0  0  0  0
   -1.4553    0.9522   -1.5947 C   0  0  0  0  0  0  0  0  0  0  0  0
   -2.0441    1.0135   -0.3024 C   0  0  0  0  0  0  0  0  0  0  0  0
   -3.3711    1.6436   -0.0939 C   0  0  0  0  0  0  0  0  0  0  0  0
   -4.4103    1.4803   -1.0236 C   0  0  0  0  0  0  0  0  0  0  0  0
   -5.6192    2.0636   -0.8093 N   0  0  0  0  0  0  0  0  0  0  0  0
   -5.8707    2.8115    0.2971 C   0  0  0  0  0  0  0  0  0  0  0  0
   -4.8753    2.9936    1.2670 C   0  0  0  0  0  0  0  0  0  0  0  0
   -5.1327    3.8129    2.4708 C   0  0  0  0  0  0  0  0  0  0  0  0
   -5.8943    4.8142    2.3814 O   0  0  0  0  0  0  0  0  0  0  0  0
   -4.5253    3.4963    3.7373 N   0  0  0  0  0  0  0  0  0  0  0  0
   -4.4821    2.1061    4.2043 C   0  0  0  0  0  0  0  0  0  0  0  0
   -4.0999    4.5891    4.6142 C   0  0  0  0  0  0  0  0  0  0  0  0
   -3.6154    2.4220    1.0488 C   0  0  0  0  0  0  0  0  0  0  0  0
   -1.3334    0.4796    0.7957 C   0  0  0  0  0  0  0  0  0  0  0  0
   -0.0643   -0.0392    0.5626 C   0  0  0  0  0  0  0  0  0  0  0  0
  1  2  1  0
  2  3  1  0
  3  4  2  0
  4  5  1  0
  5  6  2  0
  6  7  1  0
  7  8  2  0
  8  9  1  0
  9 10  2  0
 10 11  1  0
 11 12  1  0
 12 13  2  0
 13 14  1  0
 14 15  2  0
 15 16  1  0
 16 17  2  0
 17 18  1  0
 18 19  2  0
 19 20  1  0
 20 21  1  0
 21 22  2  0
 21 23  1  0
 23 24  1  0
 23 25  1  0
 20 26  2  0
 15 27  1  0
 27 28  2  0
  8  3  1  0
 28  9  1  0
 28 12  1  0
 26 16  1  0
M  END
$$$$
3KF4_B90
     RDKit          3D

 32 36  0  0  0  0  0  0  0  0999 V2000
   37.5412  -12.0053  -19.8395 C   0  0  0  0  0  0  0  0  0  0  0  0
   36.6357  -11.2792  -18.8798 C   0  0  0  0  0  0  0  0  0  0  0  0
   36.5896  -11.6971  -17.5229 C   0  0  0  0  0  0  0  0  0  0  0  0
   35.7650  -11.0435  -16.5930 C   0  0  0  0  0  0  0  0  0  0  0  0
   35.0062   -9.9713  -17.0442 C   0  0  0  0  0  0  0  0  0  0  0  0
   34.1982   -9.1739  -16.3297 N   0  0  0  0  0  0  0  0  0  0  0  0
   33.7154   -8.2360  -17.1351 N   0  0  0  0  0  0  0  0  0  0  0  0
   34.2166   -8.4391  -18.3768 C   0  0  0  0  0  0  0  0  0  0  0  0
   35.0393   -9.5515  -18.3436 C   0  0  0  0  0  0  0  0  0  0  0  0
   35.8367  -10.1819  -19.3130 C   0  0  0  0  0  0  0  0  0  0  0  0
   35.8836   -9.7087  -20.7156 C   0  0  0  0  0  0  0  0  0  0  0  0
   34.7739   -9.4368  -21.4130 C   0  0  0  0  0  0  0  0  0  0  0  0
   34.8037   -8.9963  -22.7809 N   0  0  0  0  0  0  0  0  0  0  0  0
   33.7945   -8.3556  -23.4247 C   0  0  0  0  0  0  0  0  0  0  0  0
   34.0635   -8.0938  -24.7330 N   0  0  0  0  0  0  0  0  0  0  0  0
   35.2959   -8.6100  -24.8929 C   0  0  0  0  0  0  0  0  0  0  0  0
   36.0789   -8.6765  -26.0412 C   0  0  0  0  0  0  0  0  0  0  0  0
   35.6156   -8.1416  -27.2915 N   0  0  0  0  0  0  0  0  0  0  0  0
   36.4544   -7.9549  -28.4438 C   0  0  0  0  0  0  0  0  0  0  0  0
   37.7944   -7.5476  -28.3167 C   0  0  0  0  0  0  0  0  0  0  0  0
   38.5836   -7.3493  -29.4536 C   0  0  0  0  0  0  0  0  0  0  0  0
   38.0416   -7.5433  -30.7313 C   0  0  0  0  0  0  0  0  0  0  0  0
   39.0443   -7.2850  -32.1992 P   0  0  0  0  0  5  0  0  0  0  0  0
   38.3375   -5.9327  -33.1809 C   0  0  0  0  0  0  0  0  0  0  0  0
   39.0661   -8.8026  -33.1939 C   0  0  0  0  0  0  0  0  0  0  0  0
   40.4620   -6.9278  -31.8129 O   0  0  0  0  0  0  0  0  0  0  0  0
   36.6999   -7.9232  -30.8620 C   0  0  0  0  0  0  0  0  0  0  0  0
   35.9101   -8.1206  -29.7258 C   0  0  0  0  0  0  0  0  0  0  0  0
   37.2786   -9.3273  -25.9453 N   0  0  0  0  0  0  0  0  0  0  0  0
   37.7022   -9.8812  -24.7648 C   0  0  0  0  0  0  0  0  0  0  0  0
   36.9239   -9.8032  -23.6446 N   0  0  0  0  0  0  0  0  0  0  0  0
   35.7389   -9.1511  -23.7332 C   0  0  0  0  0  0  0  0  0  0  0  0
  1  2  1  0
  2  3  2  0
  3  4  1  0
  4  5  2  0
  5  6  1  0
  6  7  1  0
  7  8  2  0
  8  9  1  0
  9 10  2  0
 10 11  1  0
 11 12  2  0
 12 13  1  0
 13 14  1  0
 14 15  2  0
 15 16  1  0
 16 17  2  0
 17 18  1  0
 18 19  1  0
 19 20  2  0
 20 21  1  0
 21 22  2  0
 22 23  1  0
 23 24  1  0
 23 25  1  0
 23 26  2  0
 22 27  1  0
 27 28  2  0
 17 29  1  0
 29 30  2  0
 30 31  1  0
 31 32  2  0
 10  2  1  0
 32 13  1  0
  9  5  1  0
 32 16  1  0
 28 19  1  0
M  END
$$$$
3MS9_MS9
     RDKit          3D

 12 12  0  0  0  0  0  0  0  0999 V2000
   36.3909  -15.2122  -20.2733 C   0  0  0  0  0  0  0  0  0  0  0  0
   36.0650  -14.1384  -19.3993 O   0  0  0  0  0  0  0  0  0  0  0  0
   36.4481  -12.8170  -19.6509 C   0  0  0  0  0  0  0  0  0  0  0  0
   37.0759  -12.5312  -20.7079 O   0  0  0  0  0  0  0  0  0  0  0  0
   36.0678  -11.7403  -18.7096 C   0  0  0  0  0  0  0  0  0  0  0  0
   35.7351  -10.4765  -19.2317 C   0  0  0  0  0  0  0  0  0  0  0  0
   35.2936   -9.4518  -18.3929 C   0  0  0  0  0  0  0  0  0  0  0  0
   35.1780   -9.6720  -17.0202 C   0  0  0  0  0  0  0  0  0  0  0  0
   34.6156   -8.3845  -15.9696 Cl  0  0  0  0  0  0  0  0  0  0  0  0
   35.5229  -10.9136  -16.4817 C   0  0  0  0  0  0  0  0  0  0  0  0
   35.9847  -11.9502  -17.3090 C   0  0  0  0  0  0  0  0  0  0  0  0
   36.4177  -13.1740  -16.6995 N   0  0  0  0  0  0  0  0  0  0  0  0
  1  2  1  0
  2  3  1  0
  3  4  2  0
  3  5  1  0
  5  6  2  0
  6  7  1  0
  7  8  2  0
  8  9  1  0
  8 10  1  0
 10 11  2  0
 11 12  1  0
 11  5  1  0
M  END
$$$$
3K5V_STJ
     RDKit          3D

 27 29  0  0  0  0  0  0  0  0999 V2000
   31.4918  -12.1250  -20.3878 N   0  0  0  0  0  0  0  0  0  0  0  0
   32.2900  -11.8167  -21.5338 C   0  0  0  0  0  0  0  0  0  0  0  0
   31.8811  -12.1706  -22.6725 O   0  0  0  0  0  0  0  0  0  0  0  0
   33.5724  -11.0803  -21.4107 C   0  0  0  0  0  0  0  0  0  0  0  0
   34.2979  -11.0823  -20.2067 C   0  0  0  0  0  0  0  0  0  0  0  0
   35.4994  -10.3796  -20.1051 C   0  0  0  0  0  0  0  0  0  0  0  0
   35.9989   -9.6763  -21.2019 C   0  0  0  0  0  0  0  0  0  0  0  0
   35.3071   -9.6773  -22.4250 C   0  0  0  0  0  0  0  0  0  0  0  0
   35.8543   -8.9227  -23.5819 C   0  0  0  0  0  0  0  0  0  0  0  0
   35.6182   -9.3265  -24.9063 C   0  0  0  0  0  0  0  0  0  0  0  0
   36.1725   -8.5798  -25.9521 C   0  0  0  0  0  0  0  0  0  0  0  0
   35.9197   -8.9573  -27.3154 N   0  0  0  0  0  0  0  0  0  0  0  0
   36.6425   -8.4337  -28.4426 C   0  0  0  0  0  0  0  0  0  0  0  0
   35.9762   -8.2480  -29.6618 C   0  0  0  0  0  0  0  0  0  0  0  0
   36.6615   -7.7620  -30.7795 C   0  0  0  0  0  0  0  0  0  0  0  0
   38.0364   -7.4692  -30.6974 C   0  0  0  0  0  0  0  0  0  0  0  0
   38.7750   -6.9780  -31.7861 O   0  0  0  0  0  0  0  0  0  0  0  0
   38.2502   -6.7121  -33.0850 C   0  0  0  0  0  0  0  0  0  0  0  0
   37.7446   -7.8733  -33.6419 F   0  0  0  0  0  0  0  0  0  0  0  0
   39.2671   -6.2382  -33.8908 F   0  0  0  0  0  0  0  0  0  0  0  0
   37.2563   -5.7528  -33.0105 F   0  0  0  0  0  0  0  0  0  0  0  0
   38.7048   -7.6781  -29.4857 C   0  0  0  0  0  0  0  0  0  0  0  0
   38.0195   -8.1629  -28.3681 C   0  0  0  0  0  0  0  0  0  0  0  0
   36.9123   -7.4750  -25.6643 N   0  0  0  0  0  0  0  0  0  0  0  0
   37.1423   -7.0984  -24.3812 C   0  0  0  0  0  0  0  0  0  0  0  0
   36.6198   -7.8196  -23.3568 N   0  0  0  0  0  0  0  0  0  0  0  0
   34.0886  -10.3790  -22.5166 C   0  0  0  0  0  0  0  0  0  0  0  0
  1  2  1  0
  2  3  2  0
  2  4  1  0
  4  5  2  0
  5  6  1  0
  6  7  2  0
  7  8  1  0
  8  9  1  0
  9 10  2  0
 10 11  1  0
 11 12  1  0
 12 13  1  0
 13 14  2  0
 14 15  1  0
 15 16  2  0
 16 17  1  0
 17 18  1  0
 18 19  1  0
 18 20  1  0
 18 21  1  0
 16 22  1  0
 22 23  2  0
 11 24  2  0
 24 25  1  0
 25 26  2  0
  8 27  2  0
 27  4  1  0
 26  9  1  0
 23 13  1  0
M  END
$$$$
3K5V_STI
     RDKit          3D

 37 41  0  0  0  0  0  0  0  0999 V2000
   -1.0114   -1.8134   -1.1798 C   0  0  0  0  0  0  0  0  0  0  0  0
   -0.0178   -1.3116   -0.1668 C   0  0  0  0  0  0  0  0  0  0  0  0
    1.2062   -1.9834   -0.0245 C   0  0  0  0  0  0  0  0  0  0  0  0
    2.1399   -1.5662    0.9256 C   0  0  0  0  0  0  0  0  0  0  0  0
    1.8726   -0.4577    1.7452 C   0  0  0  0  0  0  0  0  0  0  0  0
    2.8135   -0.0157    2.7397 N   0  0  0  0  0  0  0  0  0  0  0  0
    4.2310   -0.2349    2.6657 C   0  0  0  0  0  0  0  0  0  0  0  0
    4.8640   -0.4748    3.7289 O   0  0  0  0  0  0  0  0  0  0  0  0
    4.9722   -0.1394    1.3850 C   0  0  0  0  0  0  0  0  0  0  0  0
    6.1638   -0.8606    1.2047 C   0  0  0  0  0  0  0  0  0  0  0  0
    6.8676   -0.7769    0.0002 C   0  0  0  0  0  0  0  0  0  0  0  0
    6.4056    0.0466   -1.0390 C   0  0  0  0  0  0  0  0  0  0  0  0
    7.1625    0.1264   -2.3512 C   0  0  0  0  0  0  0  0  0  0  0  0
    8.1262    1.2533   -2.4421 N   0  0  0  0  0  4  0  0  0  0  0  0
    7.4812    2.5728   -2.2894 C   0  0  0  0  0  0  0  0  0  0  0  0
    8.4646    3.7179   -2.6270 C   0  0  0  0  0  0  0  0  0  0  0  0
    9.8850    3.3005   -2.5310 N   0  0  0  0  0  4  0  0  0  0  0  0
   10.7589    4.4817   -2.4288 C   0  0  0  0  0  0  0  0  0  0  0  0
   10.1030    2.4010   -1.3809 C   0  0  0  0  0  0  0  0  0  0  0  0
    9.2655    1.1054   -1.5044 C   0  0  0  0  0  0  0  0  0  0  0  0
    5.2122    0.7644   -0.8609 C   0  0  0  0  0  0  0  0  0  0  0  0
    4.5086    0.6822    0.3433 C   0  0  0  0  0  0  0  0  0  0  0  0
    0.6506    0.2135    1.6092 C   0  0  0  0  0  0  0  0  0  0  0  0
   -0.2810   -0.1791    0.6385 C   0  0  0  0  0  0  0  0  0  0  0  0
   -1.4993    0.5670    0.5104 N   0  0  0  0  0  0  0  0  0  0  0  0
   -1.8386    1.2887   -0.6799 C   0  0  0  0  0  0  0  0  0  0  0  0
   -0.9607    1.3701   -1.7156 N   0  0  0  0  0  0  0  0  0  0  0  0
   -1.2718    2.0586   -2.8424 C   0  0  0  0  0  0  0  0  0  0  0  0
   -2.5032    2.7032   -2.9485 C   0  0  0  0  0  0  0  0  0  0  0  0
   -3.3989    2.6307   -1.8693 C   0  0  0  0  0  0  0  0  0  0  0  0
   -4.7293    3.2909   -1.9084 C   0  0  0  0  0  0  0  0  0  0  0  0
   -4.9635    4.4416   -2.6841 C   0  0  0  0  0  0  0  0  0  0  0  0
   -6.2245    5.0403   -2.6903 C   0  0  0  0  0  0  0  0  0  0  0  0
   -7.2469    4.4916   -1.9170 C   0  0  0  0  0  0  0  0  0  0  0  0
   -7.0101    3.3870   -1.1627 N   0  0  0  0  0  0  0  0  0  0  0  0
   -5.7914    2.7844   -1.1373 C   0  0  0  0  0  0  0  0  0  0  0  0
   -3.0397    1.9194   -0.7647 N   0  0  0  0  0  0  0  0  0  0  0  0
  1  2  1  0
  2  3  2  0
  3  4  1  0
  4  5  2  0
  5  6  1  0
  6  7  1  0
  7  8  2  0
  7  9  1  0
  9 10  2  0
 10 11  1  0
 11 12  2  0
 12 13  1  0
 13 14  1  0
 14 15  1  0
 15 16  1  0
 16 17  1  0
 17 18  1  0
 17 19  1  0
 19 20  1  0
 12 21  1  0
 21 22  2  0
  5 23  1  0
 23 24  2  0
 24 25  1  0
 25 26  1  0
 26 27  2  0
 27 28  1  0
 28 29  2  0
 29 30  1  0
 30 31  1  0
 31 32  2  0
 32 33  1  0
 33 34  2  0
 34 35  1  0
 35 36  2  0
 30 37  2  0
 24  2  1  0
 37 26  1  0
 22  9  1  0
 36 31  1  0
 20 14  1  0
M  CHG  2  14   1  17   1
M  END
$$$$
3KFA_B91
     RDKit          3D

 41 46  0  0  0  0  0  0  0  0999 V2000
   16.5063   -0.2196   -2.7312 C   0  0  0  0  0  0  0  0  0  0  0  0
   15.0196   -0.1647   -2.6185 C   0  0  0  0  0  0  0  0  0  0  0  0
   14.3107    0.4133   -1.5903 C   0  0  0  0  0  0  0  0  0  0  0  0
   13.0025    0.1879   -1.8147 N   0  0  0  0  0  0  0  0  0  0  0  0
   11.8919    0.6091   -0.9964 C   0  0  0  0  0  0  0  0  0  0  0  0
   10.6837   -0.1087   -1.0072 C   0  0  0  0  0  0  0  0  0  0  0  0
    9.5908    0.3100   -0.2364 C   0  0  0  0  0  0  0  0  0  0  0  0
    8.3724   -0.4541   -0.2669 N   0  0  0  0  0  0  0  0  0  0  0  0
    7.0661    0.1209   -0.0933 C   0  0  0  0  0  0  0  0  0  0  0  0
    6.8919    1.3517   -0.3099 O   0  0  0  0  0  0  0  0  0  0  0  0
    5.9082   -0.7241    0.2897 C   0  0  0  0  0  0  0  0  0  0  0  0
    6.1001   -1.9683    0.9080 C   0  0  0  0  0  0  0  0  0  0  0  0
    5.0078   -2.7603    1.2607 C   0  0  0  0  0  0  0  0  0  0  0  0
    3.6961   -2.3225    1.0210 C   0  0  0  0  0  0  0  0  0  0  0  0
    2.5450   -3.2098    1.4205 C   0  0  0  0  0  0  0  0  0  0  0  0
    3.4828   -1.0624    0.4105 C   0  0  0  0  0  0  0  0  0  0  0  0
    2.1051   -0.5905    0.1141 C   0  0  0  0  0  0  0  0  0  0  0  0
    1.7510    0.7012    0.1670 C   0  0  0  0  0  0  0  0  0  0  0  0
    0.4146    1.1504   -0.1146 N   0  0  0  0  0  0  0  0  0  0  0  0
    0.0639    2.4161   -0.4591 C   0  0  0  0  0  0  0  0  0  0  0  0
   -1.2770    2.5844   -0.6202 N   0  0  0  0  0  0  0  0  0  0  0  0
   -1.7653    1.3598   -0.3513 C   0  0  0  0  0  0  0  0  0  0  0  0
   -3.0874    0.9292   -0.3106 C   0  0  0  0  0  0  0  0  0  0  0  0
   -4.1722    1.8105   -0.6286 N   0  0  0  0  0  0  0  0  0  0  0  0
   -5.5615    1.3713   -0.5398 C   0  0  0  0  0  0  0  0  0  0  0  0
   -6.4611    1.9483   -1.6192 C   0  0  0  0  0  0  0  0  0  0  0  0
   -5.9919    0.5048   -1.7112 C   0  0  0  0  0  0  0  0  0  0  0  0
   -3.3162   -0.3695    0.0535 N   0  0  0  0  0  0  0  0  0  0  0  0
   -2.2857   -1.2151    0.3743 C   0  0  0  0  0  0  0  0  0  0  0  0
   -0.9919   -0.7767    0.3347 N   0  0  0  0  0  0  0  0  0  0  0  0
   -0.7614    0.5037   -0.0460 C   0  0  0  0  0  0  0  0  0  0  0  0
    4.5973   -0.2795    0.0473 C   0  0  0  0  0  0  0  0  0  0  0  0
    9.7247    1.4363    0.5923 C   0  0  0  0  0  0  0  0  0  0  0  0
   10.9328    2.1505    0.6408 C   0  0  0  0  0  0  0  0  0  0  0  0
   11.0498    3.3930    1.4890 C   0  0  0  0  0  0  0  0  0  0  0  0
   10.6422    4.4878    0.7501 F   0  0  0  0  0  0  0  0  0  0  0  0
   12.3585    3.5864    1.8968 F   0  0  0  0  0  0  0  0  0  0  0  0
   10.2570    3.2913    2.6191 F   0  0  0  0  0  0  0  0  0  0  0  0
   12.0006    1.7467   -0.1777 C   0  0  0  0  0  0  0  0  0  0  0  0
   12.9532   -0.5261   -2.9617 C   0  0  0  0  0  0  0  0  0  0  0  0
   14.1762   -0.7676   -3.4796 N   0  0  0  0  0  0  0  0  0  0  0  0
  1  2  1  0
  2  3  2  0
  3  4  1  0
  4  5  1  0
  5  6  2  0
  6  7  1  0
  7  8  1  0
  8  9  1  0
  9 10  2  0
  9 11  1  0
 11 12  2  0
 12 13  1  0
 13 14  2  0
 14 15  1  0
 14 16  1  0
 16 17  1  0
 17 18  2  0
 18 19  1  0
 19 20  1  0
 20 21  2  0
 21 22  1  0
 22 23  2  0
 23 24  1  0
 24 25  1  0
 25 26  1  0
 26 27  1  0
 23 28  1  0
 28 29  2  0
 29 30  1  0
 30 31  2  0
 16 32  2  0
  7 33  2  0
 33 34  1  0
 34 35  1  0
 35 36  1  0
 35 37  1  0
 35 38  1  0
 34 39  2  0
  4 40  1  0
 40 41  2  0
 41  2  1  0
 39  5  1  0
 32 11  1  0
 31 19  1  0
 31 22  1  0
 27 25  1  0
M  END
$$$$
