1FPU_PRC
     RDKit          3D

 29 32  0  0  0  0  0  0  0  0999 V2000
   16.8319   40.2319   49.4480 C   0  0  0  0  0  0  0  0  0  0  0  0
   17.5998   41.0551   50.4461 C   0  0  0  0  0  0  0  0  0  0  0  0
   17.2937   40.9481   51.8121 C   0  0  0  0  0  0  0  0  0  0  0  0
   17.9928   41.6993   52.7583 C   0  0  0  0  0  0  0  0  0  0  0  0
   19.0324   42.5528   52.3586 C   0  0  0  0  0  0  0  0  0  0  0  0
   19.7586   43.3479   53.3116 N   0  0  0  0  0  0  0  0  0  0  0  0
   20.1472   42.8784   54.6169 C   0  0  0  0  0  0  0  0  0  0  0  0
   19.9382   41.6772   54.9407 O   0  0  0  0  0  0  0  0  0  0  0  0
   20.8015   43.7794   55.5967 C   0  0  0  0  0  0  0  0  0  0  0  0
   20.6550   43.5425   56.9741 C   0  0  0  0  0  0  0  0  0  0  0  0
   21.2697   44.3841   57.9025 C   0  0  0  0  0  0  0  0  0  0  0  0
   22.0384   45.4557   57.4493 C   0  0  0  0  0  0  0  0  0  0  0  0
   22.1889   45.6679   56.1160 N   0  0  0  0  0  0  0  0  0  0  0  0
   21.5978   44.8659   55.1900 C   0  0  0  0  0  0  0  0  0  0  0  0
   19.3315   42.6742   50.9953 C   0  0  0  0  0  0  0  0  0  0  0  0
   18.6243   41.9351   50.0305 C   0  0  0  0  0  0  0  0  0  0  0  0
   18.9800   42.0375   48.6398 N   0  0  0  0  0  0  0  0  0  0  0  0
   19.2664   43.2800   47.9830 C   0  0  0  0  0  0  0  0  0  0  0  0
   19.0021   44.4671   48.5923 N   0  0  0  0  0  0  0  0  0  0  0  0
   19.2463   45.6449   47.9645 C   0  0  0  0  0  0  0  0  0  0  0  0
   19.7701   45.6516   46.6728 C   0  0  0  0  0  0  0  0  0  0  0  0
   20.0384   44.4236   46.0465 C   0  0  0  0  0  0  0  0  0  0  0  0
   20.5863   44.3496   44.6675 C   0  0  0  0  0  0  0  0  0  0  0  0
   21.3858   45.3763   44.1313 C   0  0  0  0  0  0  0  0  0  0  0  0
   21.8907   45.2691   42.8343 C   0  0  0  0  0  0  0  0  0  0  0  0
   21.6006   44.1339   42.0782 C   0  0  0  0  0  0  0  0  0  0  0  0
   20.8370   43.1426   42.6064 N   0  0  0  0  0  0  0  0  0  0  0  0
   20.3334   43.2206   43.8672 C   0  0  0  0  0  0  0  0  0  0  0  0
   19.7682   43.2707   46.7195 N   0  0  0  0  0  0  0  0  0  0  0  0
  1  2  1  0
  2  3  2  0
  3  4  1  0
  4  5  2  0
  5  6  1  0
  6  7  1  0
  7  8  2  0
  7  9  1  0
  9 10  2  0
 10 11  1  0
 11 12  2  0
 12 13  1  0
 13 14  2  0
  5 15  1  0
 15 16  2  0
 16 17  1  0
 17 18  1  0
 18 19  2  0
 19 20  1  0
 20 21  2  0
 21 22  1  0
 22 23  1  0
 23 24  2  0
 24 25  1  0
 25 26  2  0
 26 27  1  0
 27 28  2  0
 22 29  2  0
 16  2  1  0
 29 18  1  0
 14  9  1  0
 28 23  1  0
M  END
$$$$
6HD6_FYH
     RDKit          3D

 27 29  0  0  0  0  0  0  0  0999 V2000
    2.2026   -2.6838   -2.6949 O   0  0  0  0  0  0  0  0  0  0  0  0
    1.5928   -2.2759   -1.6701 C   0  0  0  0  0  0  0  0  0  0  0  0
    0.1644   -2.1364   -1.7237 N   0  0  0  0  0  0  0  0  0  0  0  0
   -0.5725   -1.0914   -1.0640 C   0  0  0  0  0  0  0  0  0  0  0  0
   -1.9223   -1.2958   -0.7474 C   0  0  0  0  0  0  0  0  0  0  0  0
   -2.6603   -0.2941   -0.1109 C   0  0  0  0  0  0  0  0  0  0  0  0
   -2.0686    0.9332    0.2089 C   0  0  0  0  0  0  0  0  0  0  0  0
   -2.8562    1.9014    0.8525 O   0  0  0  0  0  0  0  0  0  0  0  0
   -2.4093    3.1963    1.2487 C   0  0  0  0  0  0  0  0  0  0  0  0
   -1.3666    3.0855    2.1512 F   0  0  0  0  0  0  0  0  0  0  0  0
   -3.4545    3.8649    1.8559 F   0  0  0  0  0  0  0  0  0  0  0  0
   -2.0007    3.9190    0.1421 F   0  0  0  0  0  0  0  0  0  0  0  0
   -0.7185    1.1501   -0.1270 C   0  0  0  0  0  0  0  0  0  0  0  0
    0.0195    0.1486   -0.7645 C   0  0  0  0  0  0  0  0  0  0  0  0
    2.3586   -1.9951   -0.4329 C   0  0  0  0  0  0  0  0  0  0  0  0
    1.7733   -2.1796    0.8315 C   0  0  0  0  0  0  0  0  0  0  0  0
    2.4968   -1.8980    1.9923 C   0  0  0  0  0  0  0  0  0  0  0  0
    3.8114   -1.4363    1.9056 C   0  0  0  0  0  0  0  0  0  0  0  0
    4.4181   -1.2621    0.6521 C   0  0  0  0  0  0  0  0  0  0  0  0
    5.8282   -0.7282    0.5516 C   0  0  0  0  0  0  0  0  0  0  0  0
    5.8518    0.6957    0.1420 N   0  0  0  0  0  4  0  0  0  0  0  0
    5.2915    1.5700    1.1966 C   0  0  0  0  0  0  0  0  0  0  0  0
    5.4392    3.0474    0.8042 C   0  0  0  0  0  0  0  0  0  0  0  0
    6.7961    3.3729    0.5763 O   0  0  0  0  0  0  0  0  0  0  0  0
    7.2949    2.6030   -0.4995 C   0  0  0  0  0  0  0  0  0  0  0  0
    7.2380    1.1051   -0.1667 C   0  0  0  0  0  0  0  0  0  0  0  0
    3.6884   -1.5479   -0.5131 C   0  0  0  0  0  0  0  0  0  0  0  0
  1  2  2  0
  2  3  1  0
  3  4  1  0
  4  5  2  0
  5  6  1  0
  6  7  2  0
  7  8  1  0
  8  9  1  0
  9 10  1  0
  9 11  1  0
  9 12  1  0
  7 13  1  0
 13 14  2  0
  2 15  1  0
 15 16  2  0
 16 17  1  0
 17 18  2  0
 18 19  1  0
 19 20  1  0
 20 21  1  0
 21 22  1  0
 22 23  1  0
 23 24  1  0
 24 25  1  0
 25 26  1  0
 19 27  2  0
 14  4  1  0
 27 15  1  0
 26 21  1  0
M  CHG  1  21   1
M  END
$$$$
6HD4_FYW
     RDKit          3D

 32 35  0  0  0  0  0  0  0  0999 V2000
   19.6096   41.2203   55.2609 O   0  0  0  0  0  0  0  0  0  0  0  0
   19.7715   42.4172   54.8967 C   0  0  0  0  0  0  0  0  0  0  0  0
   19.3947   42.8197   53.5659 N   0  0  0  0  0  0  0  0  0  0  0  0
   18.7241   41.9594   52.6292 C   0  0  0  0  0  0  0  0  0  0  0  0
   19.0375   42.0513   51.2658 C   0  0  0  0  0  0  0  0  0  0  0  0
   18.3838   41.2442   50.3300 C   0  0  0  0  0  0  0  0  0  0  0  0
   17.3877   40.3397   50.7452 C   0  0  0  0  0  0  0  0  0  0  0  0
   16.6993   39.5041   49.8508 O   0  0  0  0  0  0  0  0  0  0  0  0
   16.9101   39.4545   48.4414 C   0  0  0  0  0  0  0  0  0  0  0  0
   16.0572   38.5161   47.8935 F   0  0  0  0  0  0  0  0  0  0  0  0
   16.6396   40.6874   47.8752 F   0  0  0  0  0  0  0  0  0  0  0  0
   18.2147   39.0851   48.1670 F   0  0  0  0  0  0  0  0  0  0  0  0
   17.0590   40.2671   52.1037 C   0  0  0  0  0  0  0  0  0  0  0  0
   17.7133   41.0733   53.0395 C   0  0  0  0  0  0  0  0  0  0  0  0
   20.3591   43.3840   55.8557 C   0  0  0  0  0  0  0  0  0  0  0  0
   21.1297   44.4741   55.4251 C   0  0  0  0  0  0  0  0  0  0  0  0
   21.6531   45.3421   56.3282 N   0  0  0  0  0  0  0  0  0  0  0  0
   21.4716   45.2009   57.6687 C   0  0  0  0  0  0  0  0  0  0  0  0
   22.0076   46.1994   58.5500 N   0  0  0  0  0  0  0  0  0  0  0  0
   23.3717   46.6855   58.4413 C   0  0  0  0  0  0  0  0  0  0  0  0
   23.4075   47.9897   59.2293 C   0  0  0  0  0  0  0  0  0  0  0  0
   22.1438   47.9960   60.0911 C   0  0  0  0  0  0  0  0  0  0  0  0
   22.4506   47.5113   61.3730 O   0  0  0  0  0  0  0  0  0  0  0  0
   21.1755   47.0482   59.3864 C   0  0  0  0  0  0  0  0  0  0  0  0
   20.7423   44.0952   58.1591 C   0  0  0  0  0  0  0  0  0  0  0  0
   20.6013   43.8233   59.6091 C   0  0  0  0  0  0  0  0  0  0  0  0
   21.7166   43.8107   60.4584 C   0  0  0  0  0  0  0  0  0  0  0  0
   21.5608   43.5593   61.7838 N   0  0  0  0  0  0  0  0  0  0  0  0
   20.3328   43.3122   62.3080 C   0  0  0  0  0  0  0  0  0  0  0  0
   19.2381   43.3080   61.5047 N   0  0  0  0  0  0  0  0  0  0  0  0
   19.3474   43.5528   60.1734 C   0  0  0  0  0  0  0  0  0  0  0  0
   20.1833   43.1985   57.2352 C   0  0  0  0  0  0  0  0  0  0  0  0
  1  2  2  0
  2  3  1  0
  3  4  1  0
  4  5  2  0
  5  6  1  0
  6  7  2  0
  7  8  1  0
  8  9  1  0
  9 10  1  0
  9 11  1  0
  9 12  1  0
  7 13  1  0
 13 14  2  0
  2 15  1  0
 15 16  2  0
 16 17  1  0
 17 18  2  0
 18 19  1  0
 19 20  1  0
 20 21  1  0
 21 22  1  0
 22 23  1  0
 22 24  1  0
 18 25  1  0
 25 26  1  0
 26 27  2  0
 27 28  1  0
 28 29  2  0
 29 30  1  0
 30 31  2  0
 25 32  2  0
 14  4  1  0
 32 15  1  0
 24 19  1  0
 31 26  1  0
M  END
$$$$
2QOH_P3Y
     RDKit          3D

 28 31  0  0  0  0  0  0  0  0999 V2000
   -7.6933    1.9020    3.3420 C   0  0  0  0  0  0  0  0  0  0  0  0
   -6.7576    1.1358    2.5907 O   0  0  0  0  0  0  0  0  0  0  0  0
   -6.7334    1.0564    1.1881 C   0  0  0  0  0  0  0  0  0  0  0  0
   -7.6535    1.7681    0.3914 C   0  0  0  0  0  0  0  0  0  0  0  0
   -7.5932    1.6893   -1.0013 C   0  0  0  0  0  0  0  0  0  0  0  0
   -6.6222    0.9002   -1.6164 C   0  0  0  0  0  0  0  0  0  0  0  0
   -5.7074    0.1861   -0.8412 C   0  0  0  0  0  0  0  0  0  0  0  0
   -5.7512    0.2579    0.5618 C   0  0  0  0  0  0  0  0  0  0  0  0
   -4.7820   -0.5220    1.3635 C   0  0  0  0  0  0  0  0  0  0  0  0
   -5.0654   -1.3000    2.4876 C   0  0  0  0  0  0  0  0  0  0  0  0
   -3.9427   -1.8985    2.9476 N   0  0  0  0  0  0  0  0  0  0  0  0
   -2.9594   -1.5022    2.1252 C   0  0  0  0  0  0  0  0  0  0  0  0
   -1.6529   -1.8466    2.2234 N   0  0  0  0  0  0  0  0  0  0  0  0
   -0.7598   -1.3408    1.3217 C   0  0  0  0  0  0  0  0  0  0  0  0
   -1.1846   -0.4547    0.2940 C   0  0  0  0  0  0  0  0  0  0  0  0
   -0.2087    0.1017   -0.6769 C   0  0  0  0  0  0  0  0  0  0  0  0
   -0.5497    0.2610   -2.0302 C   0  0  0  0  0  0  0  0  0  0  0  0
    0.3485    0.7793   -2.9079 N   0  0  0  0  0  0  0  0  0  0  0  0
    1.5955    1.1547   -2.5219 C   0  0  0  0  0  0  0  0  0  0  0  0
    1.9979    1.0015   -1.1880 C   0  0  0  0  0  0  0  0  0  0  0  0
    3.3501    1.4225   -0.7605 C   0  0  0  0  0  0  0  0  0  0  0  0
    3.8775    2.4312   -1.3047 O   0  0  0  0  0  0  0  0  0  0  0  0
    4.0768    0.7037    0.2550 N   0  0  0  0  0  0  0  0  0  0  0  0
    5.0760    1.4097    1.0583 C   0  0  0  0  0  0  0  0  0  0  0  0
    4.0620   -0.7624    0.2618 C   0  0  0  0  0  0  0  0  0  0  0  0
    1.0770    0.4877   -0.2637 C   0  0  0  0  0  0  0  0  0  0  0  0
   -2.5532   -0.1085    0.2153 C   0  0  0  0  0  0  0  0  0  0  0  0
   -3.4220   -0.6674    1.1492 C   0  0  0  0  0  0  0  0  0  0  0  0
  1  2  1  0
  2  3  1  0
  3  4  2  0
  4  5  1  0
  5  6  2  0
  6  7  1  0
  7  8  2  0
  8  9  1  0
  9 10  2  0
 10 11  1  0
 11 12  1  0
 12 13  2  0
 13 14  1  0
 14 15  2  0
 15 16  1  0
 16 17  2  0
 17 18  1  0
 18 19  2  0
 19 20  1  0
 20 21  1  0
 21 22  2  0
 21 23  1  0
 23 24  1  0
 23 25  1  0
 20 26  2  0
 15 27  1  0
 27 28  2  0
  8  3  1  0
 28  9  1  0
 28 12  1  0
 26 16  1  0
M  END
$$$$
3KF4_B90
     RDKit          3D

 32 36  0  0  0  0  0  0  0  0999 V2000
   26.4424   48.0740   53.2616 C   0  0  0  0  0  0  0  0  0  0  0  0
   26.5460   48.5911   54.6721 C   0  0  0  0  0  0  0  0  0  0  0  0
   27.6588   49.3971   55.0325 C   0  0  0  0  0  0  0  0  0  0  0  0
   27.7910   49.9063   56.3346 C   0  0  0  0  0  0  0  0  0  0  0  0
   26.7930   49.6023   57.2513 C   0  0  0  0  0  0  0  0  0  0  0  0
   26.6844   50.0201   58.5212 N   0  0  0  0  0  0  0  0  0  0  0  0
   25.5493   49.5485   59.0224 N   0  0  0  0  0  0  0  0  0  0  0  0
   24.9295   48.8190   58.0642 C   0  0  0  0  0  0  0  0  0  0  0  0
   25.7133   48.8325   56.9236 C   0  0  0  0  0  0  0  0  0  0  0  0
   25.5444   48.2892   55.6395 C   0  0  0  0  0  0  0  0  0  0  0  0
   24.3608   47.4724   55.2850 C   0  0  0  0  0  0  0  0  0  0  0  0
   23.9277   46.4717   56.0615 C   0  0  0  0  0  0  0  0  0  0  0  0
   22.7931   45.6577   55.7206 N   0  0  0  0  0  0  0  0  0  0  0  0
   22.0769   44.9003   56.5905 C   0  0  0  0  0  0  0  0  0  0  0  0
   21.0806   44.1867   55.9982 N   0  0  0  0  0  0  0  0  0  0  0  0
   21.2036   44.5233   54.7013 C   0  0  0  0  0  0  0  0  0  0  0  0
   20.4850   44.0637   53.6023 C   0  0  0  0  0  0  0  0  0  0  0  0
   19.3775   43.1621   53.7602 N   0  0  0  0  0  0  0  0  0  0  0  0
   18.7594   42.4529   52.6734 C   0  0  0  0  0  0  0  0  0  0  0  0
   17.3808   42.1979   52.7132 C   0  0  0  0  0  0  0  0  0  0  0  0
   16.7608   41.4909   51.6791 C   0  0  0  0  0  0  0  0  0  0  0  0
   17.5143   41.0168   50.5979 C   0  0  0  0  0  0  0  0  0  0  0  0
   16.7072   40.1027   49.2787 P   0  0  0  0  0  5  0  0  0  0  0  0
   15.9778   38.5859   49.9562 C   0  0  0  0  0  0  0  0  0  0  0  0
   15.3986   41.1238   48.5455 C   0  0  0  0  0  0  0  0  0  0  0  0
   17.7062   39.7350   48.2048 O   0  0  0  0  0  0  0  0  0  0  0  0
   18.8967   41.2443   50.5662 C   0  0  0  0  0  0  0  0  0  0  0  0
   19.5174   41.9523   51.5998 C   0  0  0  0  0  0  0  0  0  0  0  0
   20.8493   44.5373   52.3714 N   0  0  0  0  0  0  0  0  0  0  0  0
   21.8972   45.4082   52.2194 C   0  0  0  0  0  0  0  0  0  0  0  0
   22.6030   45.8391   53.3071 N   0  0  0  0  0  0  0  0  0  0  0  0
   22.2252   45.3960   54.5312 C   0  0  0  0  0  0  0  0  0  0  0  0
  1  2  1  0
  2  3  2  0
  3  4  1  0
  4  5  2  0
  5  6  1  0
  6  7  1  0
  7  8  2  0
  8  9  1  0
  9 10  2  0
 10 11  1  0
 11 12  2  0
 12 13  1  0
 13 14  1  0
 14 15  2  0
 15 16  1  0
 16 17  2  0
 17 18  1  0
 18 19  1  0
 19 20  2  0
 20 21  1  0
 21 22  2  0
 22 23  1  0
 23 24  1  0
 23 25  1  0
 23 26  2  0
 22 27  1  0
 27 28  2  0
 17 29  1  0
 29 30  2  0
 30 31  1  0
 31 32  2  0
 10  2  1  0
 32 13  1  0
  9  5  1  0
 32 16  1  0
 28 19  1  0
M  END
$$$$
3MS9_MS9
     RDKit          3D

 12 12  0  0  0  0  0  0  0  0999 V2000
   15.9270   44.6485   55.3006 C   0  0  0  0  0  0  0  0  0  0  0  0
   16.7410   44.0520   54.2981 O   0  0  0  0  0  0  0  0  0  0  0  0
   16.4667   42.7936   53.7527 C   0  0  0  0  0  0  0  0  0  0  0  0
   15.4407   42.1560   54.1185 O   0  0  0  0  0  0  0  0  0  0  0  0
   17.3445   42.2309   52.7025 C   0  0  0  0  0  0  0  0  0  0  0  0
   16.7587   41.4762   51.6693 C   0  0  0  0  0  0  0  0  0  0  0  0
   17.5322   40.9916   50.6132 C   0  0  0  0  0  0  0  0  0  0  0  0
   18.9021   41.2515   50.5722 C   0  0  0  0  0  0  0  0  0  0  0  0
   19.8701   40.6474   49.2398 Cl  0  0  0  0  0  0  0  0  0  0  0  0
   19.5043   41.9817   51.5995 C   0  0  0  0  0  0  0  0  0  0  0  0
   18.7438   42.4625   52.6777 C   0  0  0  0  0  0  0  0  0  0  0  0
   19.4214   43.1229   53.7554 N   0  0  0  0  0  0  0  0  0  0  0  0
  1  2  1  0
  2  3  1  0
  3  4  2  0
  3  5  1  0
  5  6  2  0
  6  7  1  0
  7  8  2  0
  8  9  1  0
  8 10  1  0
 10 11  2  0
 11 12  1  0
 11  5  1  0
M  END
$$$$
3K5V_STJ
     RDKit          3D

 27 29  0  0  0  0  0  0  0  0999 V2000
   21.8451   49.1281   61.2108 N   0  0  0  0  0  0  0  0  0  0  0  0
   21.6615   47.9005   60.5002 C   0  0  0  0  0  0  0  0  0  0  0  0
   21.7123   46.8149   61.1392 O   0  0  0  0  0  0  0  0  0  0  0  0
   21.3984   47.8813   59.0399 C   0  0  0  0  0  0  0  0  0  0  0  0
   21.7919   48.9506   58.2170 C   0  0  0  0  0  0  0  0  0  0  0  0
   21.5386   48.9162   56.8450 C   0  0  0  0  0  0  0  0  0  0  0  0
   20.9011   47.8143   56.2729 C   0  0  0  0  0  0  0  0  0  0  0  0
   20.5167   46.7206   57.0699 C   0  0  0  0  0  0  0  0  0  0  0  0
   19.8334   45.5394   56.4819 C   0  0  0  0  0  0  0  0  0  0  0  0
   20.0705   45.1311   55.1589 C   0  0  0  0  0  0  0  0  0  0  0  0
   19.3917   44.0125   54.6623 C   0  0  0  0  0  0  0  0  0  0  0  0
   19.6408   43.5590   53.3215 N   0  0  0  0  0  0  0  0  0  0  0  0
   18.8222   42.5993   52.6316 C   0  0  0  0  0  0  0  0  0  0  0  0
   17.4265   42.5755   52.7942 C   0  0  0  0  0  0  0  0  0  0  0  0
   16.6500   41.6488   52.0929 C   0  0  0  0  0  0  0  0  0  0  0  0
   17.2460   40.7424   51.2087 C   0  0  0  0  0  0  0  0  0  0  0  0
   16.4168   39.8324   50.5332 O   0  0  0  0  0  0  0  0  0  0  0  0
   16.8605   38.8482   49.6016 C   0  0  0  0  0  0  0  0  0  0  0  0
   17.4784   39.4564   48.5234 F   0  0  0  0  0  0  0  0  0  0  0  0
   15.7673   38.1377   49.1455 F   0  0  0  0  0  0  0  0  0  0  0  0
   17.7374   37.9717   50.2153 F   0  0  0  0  0  0  0  0  0  0  0  0
   18.6420   40.7807   51.0277 C   0  0  0  0  0  0  0  0  0  0  0  0
   19.4185   41.7083   51.7286 C   0  0  0  0  0  0  0  0  0  0  0  0
   18.5418   43.3315   55.4774 N   0  0  0  0  0  0  0  0  0  0  0  0
   18.3265   43.7284   56.7568 C   0  0  0  0  0  0  0  0  0  0  0  0
   18.9684   44.8189   57.2476 N   0  0  0  0  0  0  0  0  0  0  0  0
   20.7660   46.7685   58.4545 C   0  0  0  0  0  0  0  0  0  0  0  0
  1  2  1  0
  2  3  2  0
  2  4  1  0
  4  5  2  0
  5  6  1  0
  6  7  2  0
  7  8  1  0
  8  9  1  0
  9 10  2  0
 10 11  1  0
 11 12  1  0
 12 13  1  0
 13 14  2  0
 14 15  1  0
 15 16  2  0
 16 17  1  0
 17 18  1  0
 18 19  1  0
 18 20  1  0
 18 21  1  0
 16 22  1  0
 22 23  2  0
 11 24  2  0
 24 25  1  0
 25 26  2  0
  8 27  2  0
 27  4  1  0
 26  9  1  0
 23 13  1  0
M  END
$$$$
3K5V_STI
     RDKit          3D

 37 41  0  0  0  0  0  0  0  0999 V2000
    3.5873    2.1699    2.6314 C   0  0  0  0  0  0  0  0  0  0  0  0
    2.8504    1.3020    1.6479 C   0  0  0  0  0  0  0  0  0  0  0  0
    1.7248    0.5787    2.0727 C   0  0  0  0  0  0  0  0  0  0  0  0
    1.0237   -0.2327    1.1799 C   0  0  0  0  0  0  0  0  0  0  0  0
    1.4365   -0.3387   -0.1576 C   0  0  0  0  0  0  0  0  0  0  0  0
    0.7371   -1.1789   -1.0928 N   0  0  0  0  0  0  0  0  0  0  0  0
   -0.6576   -1.5079   -0.9954 C   0  0  0  0  0  0  0  0  0  0  0  0
   -1.0376   -2.6553   -1.3529 O   0  0  0  0  0  0  0  0  0  0  0  0
   -1.6618   -0.5230   -0.5283 C   0  0  0  0  0  0  0  0  0  0  0  0
   -2.8340   -0.9597    0.1106 C   0  0  0  0  0  0  0  0  0  0  0  0
   -3.7772   -0.0357    0.5686 C   0  0  0  0  0  0  0  0  0  0  0  0
   -3.5695    1.3403    0.3849 C   0  0  0  0  0  0  0  0  0  0  0  0
   -4.5714    2.3440    0.9073 C   0  0  0  0  0  0  0  0  0  0  0  0
   -4.0816    3.0416    2.1248 N   0  0  0  0  0  4  0  0  0  0  0  0
   -4.9315    4.2051    2.4671 C   0  0  0  0  0  0  0  0  0  0  0  0
   -6.2806    3.7862    3.0782 C   0  0  0  0  0  0  0  0  0  0  0  0
   -6.0777    2.9258    4.2601 N   0  0  0  0  0  4  0  0  0  0  0  0
   -7.3763    2.5180    4.8216 C   0  0  0  0  0  0  0  0  0  0  0  0
   -5.2776    1.7362    3.9093 C   0  0  0  0  0  0  0  0  0  0  0  0
   -3.9268    2.1454    3.2961 C   0  0  0  0  0  0  0  0  0  0  0  0
   -2.4092    1.7777   -0.2708 C   0  0  0  0  0  0  0  0  0  0  0  0
   -1.4657    0.8544   -0.7284 C   0  0  0  0  0  0  0  0  0  0  0  0
    2.5794    0.3537   -0.5769 C   0  0  0  0  0  0  0  0  0  0  0  0
    3.2836    1.1895    0.3077 C   0  0  0  0  0  0  0  0  0  0  0  0
    4.4629    1.8818   -0.1397 N   0  0  0  0  0  0  0  0  0  0  0  0
    4.5497    2.5665   -1.3970 C   0  0  0  0  0  0  0  0  0  0  0  0
    3.4386    2.7786   -2.1526 N   0  0  0  0  0  0  0  0  0  0  0  0
    3.5126    3.4423   -3.3336 C   0  0  0  0  0  0  0  0  0  0  0  0
    4.7384    3.9281   -3.7853 C   0  0  0  0  0  0  0  0  0  0  0  0
    5.8792    3.7245   -2.9921 C   0  0  0  0  0  0  0  0  0  0  0  0
    7.2198    4.2140   -3.4056 C   0  0  0  0  0  0  0  0  0  0  0  0
    7.3745    5.3395   -4.2363 C   0  0  0  0  0  0  0  0  0  0  0  0
    8.6501    5.7761   -4.5979 C   0  0  0  0  0  0  0  0  0  0  0  0
    9.7683    5.0908   -4.1240 C   0  0  0  0  0  0  0  0  0  0  0  0
    9.6111    4.0117   -3.3142 N   0  0  0  0  0  0  0  0  0  0  0  0
    8.3805    3.5657   -2.9456 C   0  0  0  0  0  0  0  0  0  0  0  0
    5.7503    3.0446   -1.8191 N   0  0  0  0  0  0  0  0  0  0  0  0
  1  2  1  0
  2  3  2  0
  3  4  1  0
  4  5  2  0
  5  6  1  0
  6  7  1  0
  7  8  2  0
  7  9  1  0
  9 10  2  0
 10 11  1  0
 11 12  2  0
 12 13  1  0
 13 14  1  0
 14 15  1  0
 15 16  1  0
 16 17  1  0
 17 18  1  0
 17 19  1  0
 19 20  1  0
 12 21  1  0
 21 22  2  0
  5 23  1  0
 23 24  2  0
 24 25  1  0
 25 26  1  0
 26 27  2  0
 27 28  1  0
 28 29  2  0
 29 30  1  0
 30 31  1  0
 31 32  2  0
 32 33  1  0
 33 34  2  0
 34 35  1  0
 35 36  2  0
 30 37  2  0
 24  2  1  0
 37 26  1  0
 22  9  1  0
 36 31  1  0
 20 14  1  0
M  CHG  2  14   1  17   1
M  END
$$$$
3KFA_B91
     RDKit          3D

 41 46  0  0  0  0  0  0  0  0999 V2000
    5.8937   -1.1120   -0.7920 C   0  0  0  0  0  0  0  0  0  0  0  0
    5.0652   -0.0103   -0.2215 C   0  0  0  0  0  0  0  0  0  0  0  0
    3.6948   -0.0146   -0.1059 C   0  0  0  0  0  0  0  0  0  0  0  0
    3.3186    1.1891    0.3645 N   0  0  0  0  0  0  0  0  0  0  0  0
    1.9701    1.6470    0.5804 C   0  0  0  0  0  0  0  0  0  0  0  0
    0.9527    0.7287    0.8827 C   0  0  0  0  0  0  0  0  0  0  0  0
   -0.3923    1.1313    0.9142 C   0  0  0  0  0  0  0  0  0  0  0  0
   -1.4601    0.1785    1.0806 N   0  0  0  0  0  0  0  0  0  0  0  0
   -1.4130   -1.2055    0.6821 C   0  0  0  0  0  0  0  0  0  0  0  0
   -2.1569   -2.0295    1.2792 O   0  0  0  0  0  0  0  0  0  0  0  0
   -0.5412   -1.6920   -0.4177 C   0  0  0  0  0  0  0  0  0  0  0  0
   -0.0230   -2.9935   -0.3771 C   0  0  0  0  0  0  0  0  0  0  0  0
    0.8634   -3.4336   -1.3609 C   0  0  0  0  0  0  0  0  0  0  0  0
    1.2716   -2.5748   -2.3942 C   0  0  0  0  0  0  0  0  0  0  0  0
    2.2833   -3.0626   -3.3982 C   0  0  0  0  0  0  0  0  0  0  0  0
    0.7448   -1.2624   -2.4551 C   0  0  0  0  0  0  0  0  0  0  0  0
    1.1959   -0.3061   -3.4971 C   0  0  0  0  0  0  0  0  0  0  0  0
    1.3807    0.9944   -3.2308 C   0  0  0  0  0  0  0  0  0  0  0  0
    1.8788    1.9225   -4.2075 N   0  0  0  0  0  0  0  0  0  0  0  0
    2.1033    1.7531   -5.5394 C   0  0  0  0  0  0  0  0  0  0  0  0
    2.5815    2.8717   -6.1520 N   0  0  0  0  0  0  0  0  0  0  0  0
    2.6479    3.7596   -5.1425 C   0  0  0  0  0  0  0  0  0  0  0  0
    3.0715    5.0844   -5.1559 C   0  0  0  0  0  0  0  0  0  0  0  0
    3.5259    5.7133   -6.3610 N   0  0  0  0  0  0  0  0  0  0  0  0
    3.9343    7.1146   -6.3815 C   0  0  0  0  0  0  0  0  0  0  0  0
    5.3196    7.3433   -5.8009 C   0  0  0  0  0  0  0  0  0  0  0  0
    5.1052    7.4024   -7.3052 C   0  0  0  0  0  0  0  0  0  0  0  0
    3.0428    5.7668   -3.9700 N   0  0  0  0  0  0  0  0  0  0  0  0
    2.6138    5.1719   -2.8108 C   0  0  0  0  0  0  0  0  0  0  0  0
    2.2006    3.8693   -2.8125 N   0  0  0  0  0  0  0  0  0  0  0  0
    2.2281    3.1954   -3.9878 C   0  0  0  0  0  0  0  0  0  0  0  0
   -0.1998   -0.8577   -1.4932 C   0  0  0  0  0  0  0  0  0  0  0  0
   -0.7024    2.4892    0.7619 C   0  0  0  0  0  0  0  0  0  0  0  0
    0.3095    3.4376    0.5393 C   0  0  0  0  0  0  0  0  0  0  0  0
   -0.0464    4.8833    0.2988 C   0  0  0  0  0  0  0  0  0  0  0  0
   -1.1511    5.2433    1.0510 F   0  0  0  0  0  0  0  0  0  0  0  0
   -0.3351    5.0641   -1.0409 F   0  0  0  0  0  0  0  0  0  0  0  0
    1.0044    5.7132    0.6499 F   0  0  0  0  0  0  0  0  0  0  0  0
    1.6397    3.0026    0.4166 C   0  0  0  0  0  0  0  0  0  0  0  0
    4.4622    1.8942    0.5072 C   0  0  0  0  0  0  0  0  0  0  0  0
    5.5567    1.1889    0.1497 N   0  0  0  0  0  0  0  0  0  0  0  0
  1  2  1  0
  2  3  2  0
  3  4  1  0
  4  5  1  0
  5  6  2  0
  6  7  1  0
  7  8  1  0
  8  9  1  0
  9 10  2  0
  9 11  1  0
 11 12  2  0
 12 13  1  0
 13 14  2  0
 14 15  1  0
 14 16  1  0
 16 17  1  0
 17 18  2  0
 18 19  1  0
 19 20  1  0
 20 21  2  0
 21 22  1  0
 22 23  2  0
 23 24  1  0
 24 25  1  0
 25 26  1  0
 26 27  1  0
 23 28  1  0
 28 29  2  0
 29 30  1  0
 30 31  2  0
 16 32  2  0
  7 33  2  0
 33 34  1  0
 34 35  1  0
 35 36  1  0
 35 37  1  0
 35 38  1  0
 34 39  2  0
  4 40  1  0
 40 41  2  0
 41  2  1  0
 39  5  1  0
 32 11  1  0
 31 19  1  0
 31 22  1  0
 27 25  1  0
M  END
$$$$
